%nprocshared=8
%mem=30GB
%chk=C8H18_4.chk
# opt freq b3lyp/cc-pvdz

6-31g

0 1
 C                  0.00000000    0.00000000    0.00000000
 H                  0.00000000    0.00000000    1.10354612
 H                  1.05348816    0.00000000   -0.32859958
 H                 -0.45268350   -0.94801172   -0.33299548
 C                 -3.01851072    4.84090169   -2.22042469
 H                 -3.03163476    4.79288306   -3.32515720
 H                 -4.07704013    4.79288295   -1.90400116
 C                 -0.63362789   10.20829296   -0.46609696
 H                 -0.61994059   10.25655849    0.63953653
 H                  0.42592875   10.25655860   -0.78225025
 C                 -3.62760809   15.08103694   -2.66847692
 H                 -4.68690000   15.03178953   -2.35230021
 H                 -3.64119281   15.03178975   -3.77386488
 C                 -1.24281970   20.44789577   -0.91421866
 H                 -0.18352311   20.49714828   -1.23038573
 H                 -1.22922496   20.49714806    0.19117169
 C                 -4.23807266   25.31994283   -3.11753487
 H                 -5.29765831   25.27139485   -2.80144140
 H                 -4.25182292   25.27139518   -4.22317867
 C                 -1.85578299   30.68825616   -1.36511468
 H                 -0.79726572   30.73660133   -1.68153101
 H                 -1.84265966   30.73660100   -0.26039386
 C                 -4.87597356   35.52715628   -3.58677508
 H                 -5.92970974   35.52692473   -3.25823254
 H                 -4.42369279   36.47569444   -3.25407585
 H                 -4.87609711   35.52692506   -4.69054242

