%nprocshared=8
%mem=30GB
%chk=C8H18_z.chk
# opt freq b3lyp/cc-pvdz

6-31g

0 1
 C              
 H                  1            B1
 H                  1            B2    2            A1
 H                  1            B3    2            A2    3            D1    0
 C                  1            B4    4            A3    3            D2    0
 H                  5            B5    1            A4    4            D3    0
 H                  5            B6    1            A5    4            D4    0
 C                  5            B7    1            A6    4            D5    0
 H                  8            B8    5            A7    1            D6    0
 H                  8            B9    5            A8    1            D7    0
 C                  8           B10    5            A9    1            D8    0
 H                 11           B11    8           A10    5            D9    0
 H                 11           B12    8           A11    5           D10    0
 C                 11           B13    8           A12    5           D11    0
 H                 14           B14   11           A13    8           D12    0
 H                 14           B15   11           A14    8           D13    0
 C                 14           B16   11           A15    8           D14    0
 H                 17           B17   14           A16   11           D15    0
 H                 17           B18   14           A17   11           D16    0
 C                 17           B19   14           A18   11           D17    0
 H                 20           B20   17           A19   14           D18    0
 H                 20           B21   17           A20   14           D19    0
 C                 20           B22   17           A21   14           D20    0
 H                 23           B23   20           A22   17           D21    0
 H                 23           B24   20           A23   17           D22    0
 H                 23           B25   20           A24   17           D23    0

   B4             1.53044156
   B7             1.53244537
   B10            1.53211514
   B13            1.53231466
   B16            1.53221623
   B19            1.53225872
   B22            1.53036516
   B1             1.10354612
   B2             1.10354655
   B3             1.10205924
   B5             1.10585350
   B6             1.10585449
   B8             1.10677112
   B9             1.10677131
   B11            1.10656783
   B12            1.10656783
   B14            1.10656978
   B15            1.10657058
   B17            1.10679435
   B18            1.10679454
   B20            1.10585503
   B21            1.10585602
   B23            1.10376636
   B24            1.10225737
   B25            1.10376738
   A1           107.32352443
   A2           107.58723441
   A3           111.59853680
   A4           109.50304429
   A5           109.50299750
   A6           113.37647142
   A7           109.20203511
   A8           109.20199993
   A9           113.78383588
   A10          109.24437738
   A11          109.24437738
   A12          113.78239158
   A13          109.24802844
   A14          109.24801402
   A15          113.76669597
   A16          109.28868912
   A17          109.28865741
   A18          113.79865438
   A19          109.17970090
   A20          109.17965134
   A21          113.38008301
   A22          111.27349645
   A23          111.60794320
   A24          111.27344681
   D1           115.52486450
   D2           122.32464594
   D3           -57.80475014
   D4            57.80484845
   D5           180.00000000
   D6           -57.60257810
   D7            57.60264525
   D8           180.00000000
   D9            57.62842662
   D10          -57.62842662
   D11          180.00000000
   D12           57.62976600
   D13          -57.62979537
   D14          180.00000000
   D15           57.64532478
   D16          -57.64539387
   D17          180.00000000
   D18           57.62386219
   D19          -57.62395876
   D20          180.00000000
   D21           59.81008052
   D22          180.00000000
   D23          -59.81017766

