%nprocshared=8
%mem=30GB
%chk=C8H18_1.5.chk
# opt freq b3lyp/cc-pvdz

6-31g

0 1
 C                  0.00000000    0.00000000    0.00000000
 H                  0.00000000    0.00000000    1.10354612
 H                  1.05348816    0.00000000   -0.32859958
 H                 -0.45268350   -0.94801172   -0.33299548
 C                 -1.13194152    1.81533813   -0.83265926
 H                 -1.14506556    1.76731950   -1.93739177
 H                 -2.19047093    1.76731939   -0.51623573
 C                 -0.23761046    3.82810986   -0.17478636
 H                 -0.22392316    3.87637539    0.93084713
 H                  0.82194618    3.87637550   -0.49093965
 C                 -1.36035303    5.65538885   -1.00067885
 H                 -2.41964494    5.60614144   -0.68450213
 H                 -1.37393775    5.60614166   -2.10606680
 C                 -0.46605739    7.66796091   -0.34283200
 H                  0.59323920    7.71721342   -0.65899906
 H                 -0.45246265    7.71721320    0.76255836
 C                 -1.58927725    9.49497856   -1.16907558
 H                 -2.64886290    9.44643058   -0.85298211
 H                 -1.60302751    9.44643091   -2.27471938
 C                 -0.69591862   11.50809606   -0.51191801
 H                  0.36259864   11.55644123   -0.82833433
 H                 -0.68279529   11.55644090    0.59280281
 C                 -1.82849009   13.32268361   -1.34504065
 H                 -2.88222626   13.32245205   -1.01649812
 H                 -1.37620931   14.27122176   -1.01234143
 H                 -1.82861363   13.32245239   -2.44880800

