%nprocshared=8
%mem=30GB
%chk=C8H18_2.chk
# opt freq b3lyp/cc-pvdz

6-31g

0 1
 C                  0.00000000    0.00000000    0.00000000
 H                  0.00000000    0.00000000    1.10354612
 H                  1.05348816    0.00000000   -0.32859958
 H                 -0.45268350   -0.94801172   -0.33299548
 C                 -1.50925536    2.42045084   -1.11021234
 H                 -1.52237940    2.37243221   -2.21494486
 H                 -2.56778477    2.37243210   -0.79378881
 C                 -0.31681394    5.10414648   -0.23304848
 H                 -0.30312665    5.15241201    0.87258501
 H                  0.74274269    5.15241212   -0.54920177
 C                 -1.81380405    7.54051847   -1.33423846
 H                 -2.87309595    7.49127106   -1.01806175
 H                 -1.82738876    7.49127128   -2.43962642
 C                 -0.62140985   10.22394789   -0.45710933
 H                  0.43788674   10.27320039   -0.77327639
 H                 -0.60781512   10.27320017    0.64828103
 C                 -2.11903633   12.65997142   -1.55876744
 H                 -3.17862198   12.61142343   -1.24267397
 H                 -2.13278659   12.61142377   -2.66441123
 C                 -0.92789150   15.34412808   -0.68255734
 H                  0.13062577   15.39247325   -0.99897367
 H                 -0.91476816   15.39247292    0.42216348
 C                 -2.43798678   17.76357814   -1.79338754
 H                 -3.49172296   17.76334659   -1.46484501
 H                 -1.98570601   18.71211630   -1.46068831
 H                 -2.43811033   17.76334692   -2.89715489

