%nprocshared=8
%mem=30GB
%chk=C8H18_2.5.chk
# opt freq b3lyp/cc-pvdz

6-31g

0 1
 C                  0.00000000    0.00000000    0.00000000
 H                  0.00000000    0.00000000    1.10354612
 H                  1.05348816    0.00000000   -0.32859958
 H                 -0.45268350   -0.94801172   -0.33299548
 C                 -1.88656920    3.02556355   -1.38776543
 H                 -1.89969324    2.97754492   -2.49249795
 H                 -2.94509861    2.97754481   -1.07134190
 C                 -0.39601743    6.38018310   -0.29131060
 H                 -0.38233013    6.42844863    0.81432289
 H                  0.66353920    6.42844874   -0.60746389
 C                 -2.26725506    9.42564809   -1.66779808
 H                 -3.32654696    9.37640067   -1.35162136
 H                 -2.28083977    9.37640090   -2.77318603
 C                 -0.77676231   12.77993486   -0.57138666
 H                  0.28253428   12.82918736   -0.88755373
 H                 -0.76316758   12.82918714    0.53400369
 C                 -2.64879541   15.82496427   -1.94845929
 H                 -3.70838106   15.77641629   -1.63236583
 H                 -2.66254567   15.77641662   -3.05410309
 C                 -1.15986437   19.18016010   -0.85319668
 H                 -0.10134710   19.22850527   -1.16961300
 H                 -1.14674104   19.22850494    0.25152414
 C                 -3.04748348   22.20447268   -2.24173442
 H                 -4.10121965   22.20424112   -1.91319189
 H                 -2.59520270   23.15301083   -1.90903519
 H                 -3.04760702   22.20424146   -3.34550177

