%nprocshared=4
%mem=24GB
%chk=H6_ring_opt.chk
# opt freq b3lyp/cc-pvdz 6d

sto-6g 6D dipole distance nt3

0 1
 H                 -0.10520301   -0.98097560    0.21270174
 H                  1.25436459   -0.35630269    0.10611984
 H                  1.38549964    1.12273751   -0.10658575
 H                 -1.33362699   -0.12670532    0.10691260
 H                 -1.20245045    1.35229622   -0.10603621
 H                  0.15709442    1.97697910   -0.21284926
 H                  7.96483984  121.14749493  -11.93578695
 H                  9.32913272  121.76033569  -12.05037816
 H                  9.47181862  123.23789202  -12.26594254
 H                  6.74324235  122.01211391  -12.03642546
 H                  6.88596812  123.48963088  -12.25223319
 H                  8.25023715  124.10248147  -12.36705546

