%chk=H6-H6_linear_1.5.chk
#

sto-6g 6D meta_Lowdin trans_dipo nt3

0 1
 H                 0.0    0.0    -10.0
 H                 0.0    0.0     -8.0
 H                 0.0    0.0     -6.0
 H                 0.0    0.0     -4.0
 H                 0.0    0.0     -2.0
 H                 0.0    0.0      0.0
 H                 0.0    0.0    120.0
 H                 0.0    0.0    122.0
 H                 0.0    0.0    124.0
 H                 0.0    0.0    126.0
 H                 0.0    0.0    128.0
 H                 0.0    0.0    130.0

