%chk=H2-3.chk
#

sto-6g 6D meta_Lowdin trans_dipo nt3

0 1
 H                 -5.59731250    0.98020876    3.68523364
 H                 -6.01542147    1.40509258    2.88232727
 H                 -4.82251228   -1.79330370    0.90902881
 H                 -6.32251228   -1.79330370    0.90902881
 H                 -4.84876925   -0.10000305    1.48042960
 H                 -5.44079705   -0.29418229    1.98222389

