%chk=H2-H2-H2.chk
#

sto-6g 6D meta_Lowdin trans_dipo nt3

0 1
 H                  0.0           0.0            -1.5
 H                  0.0           0.0             0.0
 H                  0.0           0.0           120.0
 H                  0.0           0.0           121.5
 H                  0.0           0.0           241.5
 H                  0.0           0.0           243.0

