%nprocshared=8
%mem=30GB
%chk=C4H10_1.5.chk
# opt freq b3lyp/cc-pvdz

cc-pVDZ

0 1
 C                  0.00000000    0.00000000    0.00000000
 H                  0.00000000    0.00000000    1.10232816
 H                  1.57837390    0.00000000   -0.49993366
 H                 -0.67581775   -1.42636923   -0.49993905
 C                 -0.76069780    1.20217613   -0.56428986
 H                 -0.08376899    2.60210226    0.00419237
 H                 -2.31574705    1.18967698    0.00392089
 C                 -0.78620274    1.24279045   -2.09595738
 H                 -1.46315610   -0.15712295   -2.66444173
 H                  0.76884792    1.25526109   -2.66416488
 C                 -1.54686506    2.44498904   -2.66024723
 H                 -0.87112711    3.87134177   -2.16015328
 H                 -1.54675436    2.44505909   -3.76257537
 H                 -3.12528802    2.44492400   -2.16046848

