%nprocshared=8
%mem=30GB
%chk=C4H10_4.chk
# opt freq b3lyp/cc-pvdz

cc-pVDZ

0 1
 C                  0.00000000    0.00000000    0.00000000
 H                  0.00000000    0.00000000    1.10232816
 H                  4.20899708    0.00000000   -1.33315644
 H                 -1.80218066   -3.80365127   -1.33317080
 C                 -0.76069780    1.20217613   -0.56428986
 H                  1.04444571    4.93531248    0.95166276
 H                 -4.90749580    1.16884508    0.95093880
 C                 -0.78620274    1.24279045   -2.09595738
 H                 -2.59141170   -2.49031196   -3.61191565
 H                  3.36059903    1.27604549   -3.61117738
 C                 -1.54686506    2.44498904   -2.66024723
 H                  0.25510280    6.24859633   -1.32666335
 H                 -1.54675436    2.44505909   -3.76257537
 H                 -5.75599296    2.44481561   -1.32750390

