%nprocshared=8
%mem=30GB
%chk=C4H10_0.8.chk
# opt freq b3lyp/cc-pvdz

cc-pVDZ

0 1
 C                  0.00000000    0.00000000    0.00000000
 H                  0.00000000    0.00000000    1.10232816
 H                  0.84179942    0.00000000   -0.26663129
 H                 -0.36043613   -0.76073025   -0.26663416
 C                 -0.76069780    1.20217613   -0.56428986
 H                 -0.39966910    1.94880340   -0.26109933
 H                 -1.59005740    1.19550992   -0.26124413
 C                 -0.78620274    1.24279045   -2.09595738
 H                 -1.14724453    0.49616997   -2.39914903
 H                  0.04315761    1.24944146   -2.39900138
 C                 -1.54686506    2.44498904   -2.66024723
 H                 -1.18647148    3.20571050   -2.39353046
 H                 -1.54675436    2.44505909   -3.76257537
 H                 -2.38869064    2.44495435   -2.39369857

