%nprocshared=8
%mem=30GB
%chk=C4H10_opt.chk
# opt freq b3lyp/cc-pVDZ

cc-pVDZ

0 1
 C                 -4.05084763   -0.45762711    0.00000000
 H                 -3.69419321   -1.46643711    0.00000000
 H                 -3.69417479    0.04677108   -0.87365150
 H                 -5.12084763   -0.45761393    0.00000000
 C                 -3.53750542    0.26832916    1.25740497
 H                 -2.46750722    0.26662209    1.25838332
 H                 -3.89577438   -0.23493884    2.13105517
 C                 -4.04852140    1.72107163    1.25599826
 H                 -5.11851918    1.72277758    1.25464336
 H                 -3.68994544    2.22444805    0.38253649
 C                 -3.53562161    2.44687254    2.51367344
 H                 -2.46562400    2.44509339    2.51506962
 H                 -3.89060989    3.45626953    2.51265437
 H                 -3.89426568    1.94354470    3.38713524


