%nprocshared=8
%mem=30GB
%chk=C4H10_2.chk
# opt freq b3lyp/cc-pvdz

cc-pVDZ

0 1
 C                  0.00000000    0.00000000    0.00000000
 H                  0.00000000    0.00000000    1.10232816
 H                  2.10449854    0.00000000   -0.66657822
 H                 -0.90109033   -1.90182564   -0.66658540
 C                 -0.76069780    1.20217613   -0.56428986
 H                  0.14187395    3.06874431    0.19368645
 H                 -2.83409680    1.18551060    0.19332447
 C                 -0.78620274    1.24279045   -2.09595738
 H                 -1.68880722   -0.62376075   -2.85393652
 H                  1.28719814    1.25941797   -2.85356738
 C                 -1.54686506    2.44498904   -2.66024723
 H                 -0.64588113    4.34679268   -1.99345529
 H                 -1.54675436    2.44505909   -3.76257537
 H                 -3.65142901    2.44490232   -1.99387557

