%nprocshared=8
%mem=30GB
%chk=C4H10.chk
# opt freq b3lyp/cc-pvdz

cc-pVDZ

0 1
 C                  0.00000000    0.00000000    0.00000000
 H                  0.00000000    0.00000000    1.10232816
 H                  1.05224927    0.00000000   -0.33328911
 H                 -0.45054516   -0.95091282   -0.33329270
 C                 -0.76069780    1.20217613   -0.56428986
 H                 -0.30941193    2.13546022   -0.18530170
 H                 -1.79739730    1.19384337   -0.18548269
 C                 -0.78620274    1.24279045   -2.09595738
 H                 -1.23750498    0.30951485   -2.47494695
 H                  0.25049770    1.25110421   -2.47476238
 C                 -1.54686506    2.44498904   -2.66024723
 H                 -1.09637309    3.39589086   -2.32685126
 H                 -1.54675436    2.44505909   -3.76257537
 H                 -2.59914703    2.44494568   -2.32706140

