%nprocshared=8
%mem=30GB
%chk=C4H10_3.chk
# opt freq b3lyp/cc-pvdz

cc-pVDZ

0 1
 C                  0.00000000    0.00000000    0.00000000
 H                  0.00000000    0.00000000    1.10232816
 H                  3.15674781    0.00000000   -0.99986733
 H                 -1.35163549   -2.85273845   -0.99987810
 C                 -0.76069780    1.20217613   -0.56428986
 H                  0.59315983    4.00202840    0.57267461
 H                 -3.87079630    1.17717784    0.57213164
 C                 -0.78620274    1.24279045   -2.09595738
 H                 -2.14010946   -1.55703636   -3.23292608
 H                  2.32389859    1.26773173   -3.23237238
 C                 -1.54686506    2.44498904   -2.66024723
 H                 -0.19538916    5.29769450   -1.66005932
 H                 -1.54675436    2.44505909   -3.76257537
 H                 -4.70371098    2.44485897   -1.66068973

