%chk=H10_linear.chk
#

sto-6g 6D meta_Lowdin trans_dipo

0 1
 H                 0.0   0.0   -7.5
 H                 0.0   0.0   -6.0
 H                 0.0   0.0   -4.5
 H                 0.0   0.0   -3.0
 H                 0.0   0.0   -1.5
 H                 0.0   0.0   0.0
 H                 0.0   0.0   1.5
 H                 0.0   0.0   3.0
 H                 0.0   0.0   4.5
 H                 0.0   0.0   6.0

