%nprocshared=8
%mem=30GB
%chk=C7H16-opt.chk
# opt freq b3lyp/cc-pVDZ

6-31g

0 1
 C                 -2.75104606    0.16736401    0.00000000
 H                 -2.39439164   -0.84144599    0.00000000
 H                 -2.39437322    0.67176220   -0.87365150
 H                 -3.82104606    0.16737720    0.00000000
 C                 -2.23770384    0.89332029    1.25740497
 H                 -2.59435848    1.90213022    1.25740510
 H                 -2.59437654    0.38892163    2.13105626
 C                 -0.69770384    0.89330111    1.25740459
 H                 -0.34105005   -0.11550722    1.25936086
 H                 -0.34103094    1.39600417    0.38277663
 C                 -0.18436159    1.62169518    2.51339895
 H                 -0.54139973    1.11925019    3.38802619
 H                 -0.54065067    2.63063191    2.51121874
 C                  1.35563826    1.62111955    2.51372134
 H                  1.71267554    2.12354688    1.63908361
 H                  1.71192757    0.61218294    2.51592171
 C                  1.86898053    2.34953853    3.76970124
 H                  1.51193952    1.84711294    4.64433845
 H                  1.51269433    3.35847624    3.76749925
 C                  3.40898038    2.34895851    3.77002618
 H                  3.76602054    2.85138993    2.89539197
 H                  3.76565325    2.85506170    4.64269108
 H                  3.76526681    1.34002087    3.77222125

