%nprocshared=8
%mem=30GB
%chk=C7H16_2.chk
# opt freq b3lyp/cc-pvdz

6-31g

0 1
 C                  0.00000000    0.00000000    0.00000000
 H                  0.00000000    0.00000000    1.10358121
 H                  1.05351373    0.00000000   -0.32863135
 H                 -0.45270124   -0.94803074   -0.33299805
 C                 -1.50938991    2.42033221   -1.11028000
 H                 -1.52253525    2.37230253   -2.21505226
 H                 -2.56795630    2.37229835   -0.79384568
 C                 -0.31684226    5.10374240   -0.23304889
 H                 -0.30317814    5.15194411    0.87263134
 H                  0.74274850    5.15194489   -0.54924860
 C                 -1.81384282    7.53989010   -1.33423506
 H                 -2.87320215    7.49059611   -1.01801904
 H                 -1.82740849    7.49060476   -2.43969886
 C                 -0.62206406   10.22308044   -0.45754223
 H                  0.43740032   10.27347582   -0.77382373
 H                 -0.60854433   10.27347534    0.64804173
 C                 -2.11982528   12.65930746   -1.55931525
 H                 -3.17825558   12.60888273   -1.24279945
 H                 -2.13280389   12.60888772   -2.66398349
 C                 -0.91392607   15.32911714   -0.67223522
 H                  0.13385598   15.42538419   -1.00506688
 H                 -1.47411197   16.18408500   -1.08431546
 H                 -0.91968830   15.42538549    0.42712320

