%nprocshared=8
%mem=30GB
%chk=C7H16_1.5.chk
# opt freq b3lyp/cc-pvdz

6-31g

0 1
 C                  0.00000000    0.00000000    0.00000000
 H                  0.00000000    0.00000000    1.10358121
 H                  1.05351373    0.00000000   -0.32863135
 H                 -0.45270124   -0.94803074   -0.33299805
 C                 -1.13204243    1.81524916   -0.83271000
 H                 -1.14518778    1.76721947   -1.93748226
 H                 -2.19060882    1.76721530   -0.51627568
 C                 -0.23763169    3.82780680   -0.17478667
 H                 -0.22396757    3.87600851    0.93089357
 H                  0.82195907    3.87600929   -0.49098638
 C                 -1.36038212    5.65491758   -1.00067629
 H                 -2.41974144    5.60562359   -0.68446027
 H                 -1.37394778    5.60563223   -2.10614010
 C                 -0.46654805    7.66731033   -0.34315667
 H                  0.59291633    7.71770571   -0.65943817
 H                 -0.45302831    7.71770523    0.76242728
 C                 -1.58986896    9.49448060   -1.16948644
 H                 -2.64829926    9.44405587   -0.85297064
 H                 -1.60284757    9.44406085   -2.27415468
 C                 -0.68544455   11.49683786   -0.50417642
 H                  0.36233750   11.59310490   -0.83700808
 H                 -1.24563045   12.35180571   -0.91625665
 H                 -0.69120678   11.59310620    0.59518201

