%nprocshared=8
%mem=30GB
%chk=C7H16_0.8.chk
# opt freq b3lyp/cc-pvdz

6-31g

0 1
 C                  0.00000000    0.00000000    0.00000000
 H                  0.00000000    0.00000000    1.10358121
 H                  1.05351373    0.00000000   -0.32863135
 H                 -0.45270124   -0.94803074   -0.33299805
 C                 -0.60375596    0.96813289   -0.44411200
 H                 -0.61690131    0.92010320   -1.54888426
 H                 -1.66232236    0.92009902   -0.12767767
 C                 -0.12673690    2.04149696   -0.09321956
 H                 -0.11307278    2.08969867    1.01246068
 H                  0.93285386    2.08969945   -0.40941927
 C                 -0.72553713    3.01595604   -0.53369402
 H                 -1.78489645    2.96666205   -0.21747800
 H                 -0.73910280    2.96667069   -1.63915783
 C                 -0.24882562    4.08923218   -0.18301689
 H                  0.81063875    4.13962756   -0.49929839
 H                 -0.23530589    4.13962708    0.92256706
 C                 -0.84793011    5.06372299   -0.62372610
 H                 -1.90636042    5.01329826   -0.30721030
 H                 -0.86090873    5.01330324   -1.72839434
 C                 -0.36557043    6.13164686   -0.26889409
 H                  0.68221163    6.22791390   -0.60172575
 H                 -0.92575633    6.98661471   -0.68097432
 H                 -0.37133266    6.22791520    0.83046434

