%nprocshared=8
%mem=30GB
%chk=C7H16_4.chk
# opt freq b3lyp/cc-pvdz

6-31g

0 1
 C                  0.00000000    0.00000000    0.00000000
 H                  0.00000000    0.00000000    1.10358121
 H                  1.05351373    0.00000000   -0.32863135
 H                 -0.45270124   -0.94803074   -0.33299805
 C                 -3.01877981    4.84066443   -2.22056001
 H                 -3.03192516    4.79263474   -3.32533226
 H                 -4.07734621    4.79263056   -1.90412568
 C                 -0.63368451   10.20748480   -0.46609778
 H                 -0.62002040   10.25568651    0.63958246
 H                  0.42590625   10.25568729   -0.78229749
 C                 -3.62768565   15.07978021   -2.66847012
 H                 -4.68704497   15.03048622   -2.35225410
 H                 -3.64125132   15.03049486   -3.77393392
 C                 -1.24412812   20.44616089   -0.91508446
 H                 -0.18466374   20.49655627   -1.23136596
 H                 -1.23060839   20.49655579    0.19049950
 C                 -4.23965056   25.31861493   -3.11863050
 H                 -5.29808086   25.26819020   -2.80211470
 H                 -4.25262917   25.26819518   -4.22329874
 C                 -1.82785213   30.65823428   -1.34447044
 H                 -0.78007008   30.75450133   -1.67730211
 H                 -2.38803803   31.51320214   -1.75655068
 H                 -1.83361436   30.75450263   -0.24511202

