%nprocshared=8
%mem=30GB
%chk=C7H16_2.5.chk
# opt freq b3lyp/cc-pvdz

6-31g

0 1
 C                  0.00000000    0.00000000    0.00000000
 H                  0.00000000    0.00000000    1.10358121
 H                  1.05351373    0.00000000   -0.32863135
 H                 -0.45270124   -0.94803074   -0.33299805
 C                 -1.88673738    3.02541527   -1.38785000
 H                 -1.89988273    2.97738558   -2.49262226
 H                 -2.94530378    2.97738140   -1.07141568
 C                 -0.39605282    6.37967800   -0.29131111
 H                 -0.38238870    6.42787971    0.81436912
 H                  0.66353794    6.42788049   -0.60751082
 C                 -2.26730353    9.42486263   -1.66779383
 H                 -3.32666285    9.37556864   -1.35157780
 H                 -2.28086920    9.37557728   -2.77325763
 C                 -0.77758008   12.77885055   -0.57192779
 H                  0.28188430   12.82924593   -0.88820928
 H                 -0.76406034   12.82924545    0.53365617
 C                 -2.64978160   15.82413433   -1.94914406
 H                 -3.70821190   15.77370960   -1.63262826
 H                 -2.66276021   15.77371458   -3.05381230
 C                 -1.14240758   19.16139643   -0.84029403
 H                 -0.09462553   19.25766347   -1.17312569
 H                 -1.70259348   20.01636428   -1.25237426
 H                 -1.14816981   19.25766477    0.25906440

