%nprocshared=8
%mem=30GB
%chk=C7H16-z.chk
# opt freq b3lyp/cc-pvdz

6-31g

0 1
 C              
 H                  1            B1
 H                  1            B2    2            A1
 H                  1            B3    3            A2    2            D1    0
 C                  1            B4    4            A3    2            D2    0
 H                  5            B5    1            A4    4            D3    0
 H                  5            B6    1            A5    4            D4    0
 C                  5            B7    1            A6    4            D5    0
 H                  8            B8    5            A7    1            D6    0
 H                  8            B9    5            A8    1            D7    0
 C                  8           B10    5            A9    1            D8    0
 H                 11           B11    8           A10    5            D9    0
 H                 11           B12    8           A11    5           D10    0
 C                 11           B13    8           A12    5           D11    0
 H                 14           B14   11           A13    8           D12    0
 H                 14           B15   11           A14    8           D13    0
 C                 14           B16   11           A15    8           D14    0
 H                 17           B17   14           A16   11           D15    0
 H                 17           B18   14           A17   11           D16    0
 C                 17           B19   14           A18   11           D17    0
 H                 20           B20   17           A19   14           D18    0
 H                 20           B21   17           A20   14           D19    0
 H                 20           B22   17           A21   14           D20    0

   B4             1.53044010
   B7             1.53235069
   B10            1.53202785
   B13            1.53202785
   B16            1.53235069
   B19            1.53044010
   B1             1.10358121
   B2             1.10358042
   B3             1.10208366
   B5             1.10589393
   B6             1.10589364
   B8             1.10681475
   B9             1.10681449
   B11            1.10664567
   B12            1.10664506
   B14            1.10681455
   B15            1.10681449
   B17            1.10589313
   B18            1.10589444
   B20            1.10358121
   B21            1.10208366
   B22            1.10358042
   A1           107.32470339
   A2           107.58713262
   A3           111.59477667
   A4           109.50468711
   A5           109.50470367
   A6           113.36828366
   A7           109.20076680
   A8           109.20080938
   A9           113.77656984
   A10          109.24352826
   A11          109.24356661
   A12          113.78994707
   A13          109.29460608
   A14          109.29466699
   A15          113.77656984
   A16          109.18381426
   A17          109.18374376
   A18          113.36828366
   A19          111.26812114
   A20          111.59477668
   A21          111.26818215
   D1          -115.52518422
   D2          -122.32396761
   D3           -57.80531924
   D4            57.80477260
   D5           179.99972439
   D6           -57.60427219
   D7            57.60367192
   D8           179.99967645
   D9            57.62856752
   D10          -57.62945511
   D11          179.99955054
   D12           57.65518461
   D13          -57.65606356
   D14          179.99955056
   D15           57.62646580
   D16          -57.62698060
   D17          180.00000000
   D18           59.81547007
   D19          180.00000000
   D20          -59.81569714

