%nprocshared=8
%mem=30GB
%chk=C7H16_3.chk
# opt freq b3lyp/cc-pvdz

6-31g

0 1
 C                  0.00000000    0.00000000    0.00000000
 H                  0.00000000    0.00000000    1.10358121
 H                  1.05351373    0.00000000   -0.32863135
 H                 -0.45270124   -0.94803074   -0.33299805
 C                 -2.26408486    3.63049832   -1.66542000
 H                 -2.27723021    3.58246863   -2.77019226
 H                 -3.32265125    3.58246446   -1.34898568
 C                 -0.47526339    7.65561360   -0.34957333
 H                 -0.46159927    7.70381531    0.75610690
 H                  0.58432737    7.70381609   -0.66577304
 C                 -2.72076424   11.30983516   -2.00135259
 H                 -3.78012356   11.26054116   -1.68513657
 H                 -2.73432990   11.26054981   -3.10681639
 C                 -0.93309609   15.33462067   -0.68631335
 H                  0.12636829   15.38501605   -1.00259484
 H                 -0.91957636   15.38501556    0.41927061
 C                 -3.17973792   18.98896120   -2.33897288
 H                 -4.23816822   18.93853647   -2.02245707
 H                 -3.19271653   18.93854145   -3.44364111
 C                 -1.37088910   22.99367571   -1.00835283
 H                 -0.32310705   23.08994276   -1.34118449
 H                 -1.93107500   23.84864357   -1.42043307
 H                 -1.37665133   23.08994406    0.09100559

