%nprocshared=8
%mem=30GB
%chk=C6H12_1.5.chk
# opt freq b3lyp/cc-pvdz

cc-pVDZ

0 1
 C                  0.00000000    0.00000000    0.00000000
 C                  0.00000000    0.00000000    1.53597122
 C                  1.42900448    0.00000000    2.09899445
 C                  2.25600098    1.16534214    1.53579461
 C                  2.25601565    1.16533890   -0.00017603
 C                  0.67856609    1.45269010   -1.21971495
 H                  1.40633053    0.04392830    3.20135380
 H                 -0.53208347    0.90041018    1.89823884
 H                 -0.56262525   -0.86855748    1.91898647
 H                  0.42634107   -0.95504918   -0.36222023
 H                 -1.03391176    0.04388201   -0.38306760
 H                  1.82962654    2.12037955    1.89800658
 H                  3.28990934    1.12149494    1.91887540
 H                  2.81863039    2.03390277   -0.38319224
 H                  2.78811549    0.26493567   -0.36243687
 H                 -0.06139949    2.88531804   -0.82412501
 H                  0.71260715    1.38673490   -2.87325500
 H                  1.92231339   -0.95507165    1.83522638

