%nprocshared=8
%mem=30GB
%chk=C6H12_z.chk
# opt freq b3lyp/cc-pvdz

cc-pVDZ

0 1
 C                  0.00000000    0.00000000    0.00000000
 C                  0.00000000    0.00000000    1.53597122
 C                  1.42900448    0.00000000    2.09899445
 C                  2.25600098    1.16534214    1.53579461
 C                  2.25601565    1.16533890   -0.00017603
 C                  0.82701598    1.16532249   -0.56321595
 H                  1.38365659    0.08785661    4.30371316
 H                 -1.06416695    1.80082035    2.26050647
 H                 -1.12525051   -1.73711495    2.30200172
 H                  0.85268215   -1.91009836   -0.72444046
 H                 -2.06782353    0.08776403   -0.76613519
 H                  1.40325209    3.07541697    2.26021855
 H                  4.32381769    1.07764775    2.30195619
 H                  3.38124512    2.90246664   -0.76620844
 H                  3.32021533   -0.63546757   -0.72469772
 H                 -0.15960252    3.07548868   -0.03576391
 H                  0.87240395    1.07738245   -2.76793050
 H                  2.41562230   -1.91014331    1.57145831

