%nprocshared=8
%mem=30GB
%chk=C6H12_opt.chk
# opt freq b3lyp/cc-pvdz

cc-pVDZ

0 1
 C                 -1.66406807   -0.94586969    0.68688723
 C                 -0.14896207   -0.94586969    0.68688723
 C                  0.40296893    0.46520831    0.68688723
 C                 -0.14669407    1.26974531    1.84754823
 C                 -1.66181907    1.27040631    1.84705923
 C                 -2.21461907   -0.14021469    1.84576323
 H                  1.52156793    0.43121731    0.74960123
 H                  0.22358693   -1.49150369    1.59344923
 H                  0.22633193   -1.49572869   -0.21502277
 H                 -2.03675607   -0.51284069   -0.27849777
 H                 -2.03966507   -2.00008969    0.75038923
 H                  0.22584093    0.83490031    2.81215923
 H                  0.22932893    2.32388231    1.78555323
 H                 -2.03713907    1.81983431    2.74917323
 H                 -2.03367407    1.81700731    0.94073623
 H                 -1.94861507   -0.64593669    2.81107823
 H                 -3.33316707   -0.10515369    1.78082523
 H                  0.13435093    0.97084131   -0.27765877


