%nprocshared=8
%mem=30GB
%chk=C6H12_0.8.chk
# opt freq b3lyp/cc-pvdz

cc-pVDZ

0 1
 C                  0.00000000    0.00000000    0.00000000
 C                  0.00000000    0.00000000    1.53597122
 C                  1.42900448    0.00000000    2.09899445
 C                  2.25600098    1.16534214    1.53579461
 C                  2.25601565    1.16533890   -0.00017603
 C                  0.82701598    1.16532249   -0.56321595
 H                  1.41086532    0.03514264    2.98088193
 H                 -0.42566678    0.72032814    1.82578532
 H                 -0.45010020   -0.69484598    1.84238342
 H                  0.34107286   -0.76403934   -0.28977618
 H                 -0.82712941    0.03510561   -0.30645408
 H                  1.91490143    1.92937207    1.82556419
 H                  3.08312766    1.13026438    1.84225924
 H                  2.70610744    1.86019000   -0.30658899
 H                  2.68169552    0.44501632   -0.28998470
 H                  0.43236858    1.92938896   -0.35223513
 H                  0.84517116    1.13014647   -1.44510177
 H                  1.82365161   -0.76405732    1.88797999

