%chk=H6-H6-H6_ring.chk
#

sto-6g 6D dipole distance nt3

0 1
 H               -116.01852977   -0.60554140   30.25969787
 H               -114.68219268    0.07578316   30.25984168
 H               -114.60416547    1.57375236   30.25993456
 H               -117.27683006    0.21096019   30.25996452
 H               -117.19875811    1.70892707   30.25981172
 H               -115.86244233    2.39029343   30.25972783
 H                  2.51707145    1.27622200   -0.62082841
 H                  3.85340854    1.95754656   -0.62068460
 H                  3.93143575    3.45551576   -0.62059172
 H                  1.25877116    2.09272359   -0.62056176
 H                  1.33684311    3.59069047   -0.62071456
 H                  2.67315889    4.27205683   -0.62079845
 H                121.60043109   -0.55340348  -29.38693576
 H                122.93676818    0.12792108  -29.38679195
 H                123.01479539    1.62589028  -29.38669907
 H                120.34213080    0.26309811  -29.38666911
 H                120.42020275    1.76106499  -29.38682191
 H                121.75651853    2.44243135  -29.38690580

