%nprocshared=4
%mem=24GB
%chk=H8_cube_opt.chk
# opt freq b3lyp/cc-pvdz 6d

sto-6g 6D meta_Lowdin trans_dipo nt4

0 1
 H                 -0.05541000   -0.53438000    0.83615700
 H                  1.41557790    4.75686326    0.53792990
 H                  4.66264863    3.60912119   -3.75033546
 H                  3.19090193   -1.68194597   -3.45272838
 H                 -0.99554647   -0.69751182   -6.88077438
 H                  0.47780063    4.59309193   -7.17870105
 H                 -2.77152625    5.73279553   -2.89000072
 H                 -4.24194725    0.44122802   -2.59474592

