%nprocshared=4
%mem=24GB
%chk=H8_cube_opt.chk
# opt freq b3lyp/cc-pvdz 6d

sto-6g 6D meta_Lowdin trans_dipo nt4

0 1
 H                 -0.05541000   -0.53438000    0.83615700
 H                  0.25166900    0.57020400    0.77390000
 H                  0.92889200    0.33082600   -0.12047900
 H                  0.62230500   -0.77216400   -0.05870400
 H                 -0.25190400   -0.57014500   -0.77392100
 H                  0.05567600    0.53433600   -0.83611700
 H                 -0.62236400    0.77215900    0.05881000
 H                 -0.92886400   -0.33083500    0.12035400

