%nprocshared=4
%mem=24GB
%chk=H8_cube_opt.chk
# opt freq b3lyp/cc-pvdz 6d

sto-6g 6D meta_Lowdin trans_dipo nt4

0 1
 H                 -0.05541000   -0.53438000    0.83615700
 H                  0.38588637    1.05299298    0.74668886
 H                  1.36000760    0.70867036   -0.53979074
 H                  0.91913441   -0.87630997   -0.45064023
 H                 -0.33745096   -0.58331956   -1.47892240
 H                  0.10455317    1.00386157   -1.56830041
 H                 -0.87024489    1.34577266   -0.28169031
 H                 -1.31137117   -0.24169760   -0.19311389

