%nprocshared=4
%mem=24GB
%chk=H8_cube_opt.chk
# opt freq b3lyp/cc-pvdz 6d

sto-6g 6D meta_Lowdin trans_dipo nt4

0 1
 H                 -0.05541000   -0.53438000    0.83615700
 H                  0.18529711    0.33145981    0.78735620
 H                  0.71663596    0.14364747    0.08564005
 H                  0.47580468   -0.72216352    0.13433939
 H                 -0.20925052   -0.56107430   -0.42661358
 H                  0.03184264    0.30466086   -0.47536522
 H                 -0.49986539    0.49115781    0.22642210
 H                 -0.74047973   -0.37473505    0.27473652

