%nprocshared=4
%mem=24GB
%chk=H8_cube_opt.chk
# opt freq b3lyp/cc-pVDZ 6D

sto-6g 6D meta_Lowdin trans_dipo nt4

0 1
 H                 -1.78674044    2.87168813   -1.59411763
 H                 -1.78669744    1.32850113   -1.59384763
 H                 -0.24345044    1.32850113   -1.59384763
 H                 -0.24351144    2.87169113   -1.59384763
 H                 -0.28564281    2.88553232    0.00000000
 H                 -0.28558181    1.34234232    0.00000000
 H                 -1.82882881    1.34234232    0.00000000
 H                 -1.82887181    2.88552932   -0.00027000

