%nprocshared=4
%mem=24GB
%chk=H8_cube_opt.chk
# opt freq b3lyp/cc-pvdz 6d

sto-6g 6D meta_Lowdin trans_dipo nt4

0 1
 H                 -0.05541000   -0.53438000    0.83615700
 H                  0.82718274    2.64036595    0.65722074
 H                  2.77542518    1.95172071   -1.91573848
 H                  1.89237716   -1.22291959   -1.73717423
 H                 -0.61949188   -0.63225909   -3.79400183
 H                  0.26451638    2.54210316   -3.97275783
 H                 -1.68507975    3.22592532   -1.39953763
 H                 -2.56733235    0.05098481   -1.22238475

