%nprocshared=4
%mem=24GB
%chk=H8_cube_opt.chk
# opt freq b3lyp/cc-pvdz 6d

sto-6g 6D meta_Lowdin trans_dipo nt4

0 1
 H                 -0.05541000   -0.53438000    0.83615700
 H                  0.53298516    1.58211730    0.71686616
 H                  1.83181345    1.12302047   -0.99843998
 H                  1.24311477   -0.99340639   -0.87939715
 H                 -0.43146459   -0.59963272   -2.25061555
 H                  0.15787425    1.51660878   -2.36978622
 H                 -1.14185650    1.97249022   -0.65430609
 H                 -1.73002490   -0.14413679   -0.53620417

