%chk=C18_ring.chk
# opt freq wb97xd scf=novaracc tzvp

sto-6g 6D meta_Lowdin trans_dipo

0 1
 C                  0.61060246    3.64197624    0.00000000
 C                 -0.61060246    3.64197624   -0.00000000
 C                 -1.87326858    3.18240336   -0.00000000
 C                 -2.80876582    2.39742796    0.00000000
 C                 -3.48061643    1.23374858    0.00000000
 C                 -3.69267644    0.03109650   -0.00000000
 C                 -3.45934517   -1.29219088   -0.00000000
 C                 -2.84874271   -2.34978536    0.00000000
 C                 -1.81940786   -3.21349985   -0.00000000
 C                 -0.67185061   -3.63117654   -0.00000000
 C                  0.67185061   -3.63117654    0.00000000
 C                  1.81940786   -3.21349985    0.00000000
 C                  2.84874271   -2.34978536    0.00000000
 C                  3.45934517   -1.29219088   -0.00000000
 C                  3.69267644    0.03109650    0.00000000
 C                  3.48061643    1.23374858    0.00000000
 C                  2.80876582    2.39742796    0.00000000
 C                  1.87326858    3.18240336   -0.00000000

