%chk=H40.chk
#

sto-6g 6D meta_Lowdin trans_dipo

0 1
 H                 0.0  0.0   -20.0
 H                 0.0  0.0   -19.0
 H                 0.0  0.0   -18.0
 H                 0.0  0.0   -17.0
 H                 0.0  0.0   -16.0
 H                 0.0  0.0   -15.0
 H                 0.0  0.0   -14.0
 H                 0.0  0.0   -13.0
 H                 0.0  0.0   -12.0
 H                 0.0  0.0   -11.0
 H                 0.0  0.0   -10.0
 H                 0.0  0.0   -9.0
 H                 0.0  0.0   -8.0
 H                 0.0  0.0   -7.0
 H                 0.0  0.0   -6.0
 H                 0.0  0.0   -5.0
 H                 0.0  0.0   -4.0
 H                 0.0  0.0   -3.0
 H                 0.0  0.0   -2.0
 H                 0.0  0.0   -1.0
 H                 0.0  0.0   0.0
 H                 0.0  0.0   1.0
 H                 0.0  0.0   2.0
 H                 0.0  0.0   3.0
 H                 0.0  0.0   4.0
 H                 0.0  0.0   5.0
 H                 0.0  0.0   6.0
 H                 0.0  0.0   7.0
 H                 0.0  0.0   8.0
 H                 0.0  0.0   9.0
 H                 0.0  0.0   10.0
 H                 0.0  0.0   11.0
 H                 0.0  0.0   12.0
 H                 0.0  0.0   13.0
 H                 0.0  0.0   14.0
 H                 0.0  0.0   15.0
 H                 0.0  0.0   16.0
 H                 0.0  0.0   17.0
 H                 0.0  0.0   18.0
 H                 0.0  0.0   19.0

