%nprocshared=24
%mem=180GB
%chk=C5H8_4.chk
#p opt freq b3lyp/cc-pvdz

6-31G

0 1
 C                  0.00000000    0.00000000    0.00000000
 H                  0.00000000    0.00000000    1.09509085
 H                  0.97411124    0.00000000   -0.49586786
 C                 -4.55656787   -0.02190965   -2.79045535
 H                 -4.51559128   -0.01570788   -3.88701868
 C                -10.10082858    0.00578102   -0.39436553
 H                -10.01600681   -0.05006417    0.70604098
 H                -10.65348635   -0.89231409   -0.72492073
 C                -13.24763084    4.92251772   -1.94433606
 H                -12.81629375    5.87962549   -1.62484124
 C                -17.80207055    4.90535274   -4.73823361
 H                -18.26028507    3.97104881   -5.07932301
 H                -18.32117338    5.83348849   -4.99093524

