%nprocshared=24
%mem=180GB
%chk=C5H8.chk
#p opt freq b3lyp/cc-pvdz

6-31G

0 1
 C                  0.00000000    0.00000000    0.00000000
 H                  0.00000000    0.00000000    1.09509085
 H                  0.97411124    0.00000000   -0.49586786
 C                 -1.13914197   -0.00547741   -0.69761384
 H                 -1.09816537    0.00072436   -1.79417717
 C                 -2.52520714    0.00144525   -0.09859138
 H                 -2.44038537   -0.05439993    1.00181513
 H                 -3.07786491   -0.89664986   -0.42914658
 C                 -3.31190771    1.23062943   -0.48608401
 H                 -2.88057062    2.18773720   -0.16658920
 C                 -4.45051764    1.22633818   -1.18455840
 H                 -4.90873216    0.29203426   -1.52564781
 H                 -4.96962047    2.15447394   -1.43726004

