%nprocshared=24
%mem=180GB
%chk=C5H8_opt.chk
#p opt freq b3lyp/cc-pVDZ geom=connectivity

6-31G

0 1
 C                 -0.89889564    0.22260274   -0.01176719
 H                 -0.36573189   -0.70510218   -0.01176719
 H                 -1.96889564    0.22260274   -0.01176719
 C                 -0.22362133    1.39758003   -0.01176719
 H                 -0.75678508    2.32528495   -0.01176719
 C                  1.31637867    1.39758003   -0.01176719
 H                  1.67304502    0.89148391   -0.88443885
 H                  1.67304552    0.89487224    0.86286052
 C                  1.82971154    2.84950339   -0.01458237
 H                  1.13278402    3.66140746   -0.01653705
 C                  3.16110288    3.10241472   -0.01459255
 H                  3.86284192    2.29466576   -0.01657876
 H                  3.51176926    4.11331983   -0.01260755

 1 2 1.0 3 1.0 4 2.0
 2
 3
 4 5 1.0 6 1.0
 5
 6 7 1.0 8 1.0 9 1.0
 7
 8
 9 10 1.0 11 2.0
 10
 11 12 1.0 13 1.0
 12
 13

