%nprocshared=24
%mem=180GB
%chk=C5H8_2.5.chk
#p opt freq b3lyp/cc-pvdz

6-31G

0 1
 C                  0.00000000    0.00000000    0.00000000
 H                  0.00000000    0.00000000    1.09509085
 H                  0.97411124    0.00000000   -0.49586786
 C                 -2.84785492   -0.01369353   -1.74403459
 H                 -2.80687832   -0.00749176   -2.84059792
 C                 -6.31301786    0.00361314   -0.24647846
 H                 -6.22819609   -0.05223205    0.85392806
 H                 -6.86567563   -0.89448197   -0.57703366
 C                 -8.27976927    3.07657357   -1.21521004
 H                 -7.84843218    4.03368135   -0.89571522
 C                -11.12629409    3.06584546   -2.96139600
 H                -11.58450862    2.13154154   -3.30248541
 H                -11.64539693    3.99398121   -3.21409764

