%nprocshared=8
%mem=30GB
%chk=benzene.chk
# opt freq b3lyp/6-31g

6-31G

0 1
 C                 -0.59643298   -1.26721302   -0.00000201
 C                 -1.39210947   -0.15376594    0.00004961
 C                 -0.79923300    1.15012500   -0.00002800
 C                  0.56241648    1.28267168    0.00000637
 C                  1.39565900    0.11708500    0.00002500
 C                  0.82900957   -1.12883237   -0.00003947
 H                 -1.05879398   -2.24939402   -0.00001201
 H                 -2.47105586   -0.27300135   -0.01089193
 H                 -1.41863700    2.04163800   -0.00004100
 H                  0.99826150    2.27690337   -0.00000811
 H                  2.47743700    0.20774900    0.00001600
 H                  1.47164736   -2.00374689   -0.00006744

