%nprocshared=8
%mem=30GB
%chk=benzene.chk
# opt freq b3lyp/6-31g

6-31G

0 1
 C                 -0.59643298   -1.26721302   -0.00000201
 C                 -1.39457108   -0.12945116    0.00004855
 C                 -0.79923300    1.15012500   -0.00002800
 C                  0.58472648    1.27265651    0.00000678
 C                  1.39565900    0.11708500    0.00002500
 C                  0.80919242   -1.14313295   -0.00003916
 H                 -1.05879398   -2.24939402   -0.00001201
 H                 -2.47543408   -0.22983820   -0.01089381
 H                 -1.41863700    2.04163800   -0.00004100
 H                  1.03785685    2.25913023   -0.00000738
 H                  2.47743700    0.20774900    0.00001600
 H                  1.43646298   -2.02912979   -0.00006688

