%nprocshared=8
%mem=30GB
%chk=benzene.chk
# opt freq b3lyp/6-31g

6-31G

0 1
 C                 -0.59643298   -1.26721302   -0.00000201
 C                 -1.39339332   -0.14161392    0.00004908
 C                 -0.79923300    1.15012500   -0.00002800
 C                  0.57359333    1.27771277    0.00000657
 C                  1.39565900    0.11708500    0.00002500
 C                  0.81913219   -1.13602590   -0.00003931
 H                 -1.05879398   -2.24939402   -0.00001201
 H                 -2.47333914   -0.25142933   -0.01089287
 H                 -1.41863700    2.04163800   -0.00004100
 H                  1.01809795    2.26810318   -0.00000775
 H                  2.47743700    0.20774900    0.00001600
 H                  1.45411054   -2.01651511   -0.00006716

