%nprocshared=8
%mem=30GB
%chk=benzene.chk
# opt freq b3lyp/6-31g

6-31G

0 1
 C                 -0.59643298   -1.26721302   -0.00000201
 C                 -1.39887744   -0.06826447    0.00004906
 C                 -0.79923300    1.15012500   -0.00002800
 C                  0.64253390    1.24447346    0.00000839
 C                  1.39565900    0.11708500    0.00002500
 C                  0.75858424   -1.17735248   -0.00004071
 H                 -1.05879398   -2.24939402   -0.00001201
 H                 -2.48309979   -0.12122008   -0.01089288
 H                 -1.41863700    2.04163800   -0.00004100
 H                  1.14045248    2.20911569   -0.00000454
 H                  2.47743700    0.20774900    0.00001600
 H                  1.34661116   -2.08986719   -0.00006963

