%nprocshared=8
%mem=30GB
%chk=benzene.chk
# opt freq b3lyp/6-31g

6-31G

0 1
 C                 -0.59643298   -1.26721302   -0.00000201
 C                 -1.39984581   -0.04384459    0.00004957
 C                 -0.79923300    1.15012500   -0.00002800
 C                  0.66416504    1.23306586    0.00000905
 C                  1.39565900    0.11708500    0.00002500
 C                  0.73793102   -1.19041658   -0.00004155
 H                 -1.05879398   -2.24939402   -0.00001201
 H                 -2.48482724   -0.07786985   -0.01089197
 H                 -1.41863700    2.04163800   -0.00004100
 H                  1.17884311    2.18887130   -0.00000338
 H                  2.47743700    0.20774900    0.00001600
 H                  1.30994281   -2.11305480   -0.00007112

