%nprocshared=8
%mem=30GB
%chk=benzene.chk
# opt freq b3lyp/6-31g

6-31G

0 1
 C                 -0.59643298   -1.26721302   -0.00000201
 C                 -1.38762237   -0.19014831    0.00005117
 C                 -0.79923300    1.15012500   -0.00002800
 C                  0.52863226    1.29696061    0.00000575
 C                  1.39565900    0.11708500    0.00002500
 C                  0.85825981   -1.10673849   -0.00003991
 H                 -1.05879398   -2.24939402   -0.00001201
 H                 -2.46307784   -0.33758637   -0.01088916
 H                 -1.41863700    2.04163800   -0.00004100
 H                  0.93830198    2.30226069   -0.00000921
 H                  2.47743700    0.20774900    0.00001600
 H                  1.52357998   -1.96453090   -0.00006823

