%nprocshared=8
%mem=30GB
%chk=benzene.chk
# opt freq b3lyp/6-31g

6-31G

0 1
 C                 -0.59643298   -1.26721302   -0.00000201
 C                 -1.39662619   -0.10485330    0.00004827
 C                 -0.79923300    1.15012500   -0.00002800
 C                  0.60972213    1.26087271    0.00000740
 C                  1.39565900    0.11708500    0.00002500
 C                  0.78912872   -1.15708549   -0.00003943
 H                 -1.05879398   -2.24939402   -0.00001201
 H                 -2.47909078   -0.18617239   -0.01089430
 H                 -1.41863700    2.04163800   -0.00004100
 H                  1.08221868    2.23821838   -0.00000630
 H                  2.47743700    0.20774900    0.00001600
 H                  1.40084099   -2.05389476   -0.00006736

