%nprocshared=4
%mem=30GB
%chk=C3H6.chk
# opt freq b3lyp/cc-pvdz

cc-pVDZ

0 1
 C                  0.00000000    0.00000000    0.00000000
 C                  0.00000000    0.00000000    1.51082147
 C                  1.30841642    0.00000000    0.75542225
 H                 -0.29672009   -0.91755100   -0.51391598
 H                 -0.29672009    0.91755100   -0.51391598
 H                 -0.29669669   -0.91754800    2.02475172
 H                 -0.29669669    0.91754800    2.02475172
 H                  1.90184412    0.91754700    0.75546508
 H                  1.90184412   -0.91754700    0.75546508

