%nprocshared=4
%mem=30GB
%chk=C3H6_3.chk
# opt freq b3lyp/cc-pvdz

cc-pVDZ

0 1
 C                  0.00000000    0.00000000    0.00000000
 C                  0.00000000    0.00000000    4.53246441
 C                  3.92524926    0.00000000    2.26626675
 H                 -0.29672009   -0.91755100   -0.51391598
 H                 -0.29672009    0.91755100   -0.51391598
 H                 -0.29669669   -0.91754800    5.04639466
 H                 -0.29669669    0.91754800    5.04639466
 H                  4.51867696    0.91754700    2.26630958
 H                  4.51867696   -0.91754700    2.26630958

