%nprocshared=8
%mem=30GB
%chk=C8H8.chk
# opt freq b3lyp/cc-pvdz

cc-pVDZ

0 1
 C                  1.83424900    0.67923600    0.09119800
 C                  0.55423600    1.30057100   -0.38289100
 C                 -0.55424100   -1.30075900    0.38283900
 C                 -0.55320400    1.30045800    0.38330600
 C                 -1.83423500   -0.67927200   -0.09119600
 C                 -1.83366700    0.68022500   -0.09105500
 H                  2.74594800    1.24228100    0.31880900
 H                  0.41104400    1.27822500   -1.47321700
 H                 -0.40977000    1.27652300    1.47358300
 H                 -0.41098900   -1.27860900    1.47316800
 H                 -2.74610600   -1.24223100   -0.31836100
 H                 -2.74496000    1.24401500   -0.31844500
 C                  1.83369000   -0.68015600    0.09108300
 H                  2.74489400   -1.24401000    0.31869300
 C                  0.55321000   -1.30032000   -0.38338300
 H                  0.40970700   -1.27608900   -1.47363600

