%nprocshared=8
%mem=30GB
%chk=COT-boat_3.chk
# opt freq b3lyp/cc-pvdz

cc-pVDZ

0 1
 C                  0.00000000    0.00000000    0.00000000
 C                  0.00000000    0.00000000    1.34485360
 C                  3.50533880    0.00000000    4.04278403
 C                  4.54077773   -0.85821547    4.04260250
 C                  5.18975460   -4.30298702    1.34459843
 C                  5.18939732   -4.30312725   -0.00025728
 C                  4.54021498   -0.85909676   -2.69866775
 C                  3.50515905   -0.00044540   -2.69838722
 H                 -2.91421574    0.26220700   -1.50998428
 H                 -2.91429239    0.26045092    2.85500041
 H                  3.40249039    2.24200066    6.45202432
 H                  6.76320220   -0.54382552    6.45156448
 H                  5.98625915   -7.11838965    2.85480965
 H                  5.98314065   -7.11924384   -1.51045813
 H                  6.76277831   -0.54464115   -5.10758190
 H                  3.40250055    2.24152478   -5.10765030

