%nprocshared=8
%mem=30GB
%chk=COT-boat.chk
# opt freq b3lyp/cc-pvdz

cc-pVDZ

0 1
 C                  0.00000000    0.00000000    0.00000000
 C                  0.00000000    0.00000000    1.34485360
 C                  1.16844632    0.00000000    2.24416378
 C                  2.20388525   -0.85821547    2.24398225
 C                  2.42021085   -2.00647257    1.34464763
 C                  2.41985358   -2.00661280   -0.00020809
 C                  2.20345947   -0.85860270   -0.89967819
 C                  1.16840355    0.00004866   -0.89939766
 H                 -0.97140539    0.08740235   -0.50332817
 H                 -0.97144556    0.08665309    1.84823593
 H                  1.13416351    0.74733366    3.04724399
 H                  2.94469334   -0.75341883    3.04696950
 H                  2.68571239   -2.94494017    1.84805140
 H                  2.68443466   -2.94531824   -0.50360833
 H                  2.94431401   -0.75378415   -1.70264967
 H                  1.13418405    0.74737201   -1.70248531

