%nprocshared=4
%mem=24GB
%chk=H6_ring_opt.chk
# opt freq b3lyp/cc-pvdz 6d

sto-6g 6D meta_Lowdin trans_dipo nt3

0 1
 H                 -0.05209700   -0.99989900   -0.00008800
 H                  1.72968579   -0.09146625    0.00010375
 H                  1.83372207    1.90582602    0.00022759
 H                 -1.72983072    0.08876980    0.00026753
 H                 -1.62573478    2.08605896    0.00006380
 H                  0.15601960    2.99454745   -0.00004805

