%nprocshared=4
%mem=24GB
%chk=H6_ring_opt.chk
# opt freq b3lyp/cc-pvdz 6d

sto-6g 6D meta_Lowdin trans_dipo nt3

0 1
 H                 -0.03112711   -0.59790771   -0.00006307
 H                  0.68156248   -0.23448848   -0.00000728
 H                  0.72317699    0.56442843    0.00004226
 H                 -0.70224412   -0.16239406    0.00005824
 H                 -0.66060575    0.63652161   -0.00002326
 H                  0.05209600    0.99991700   -0.00006800

