%nprocshared=4
%mem=24GB
%chk=H6_ring_opt.chk
# opt freq b3lyp/cc-pvdz 6d

sto-6g 6D meta_Lowdin trans_dipo nt3

0 1
 H                 -0.05209700   -0.99989900   -0.00008800
 H                  2.62057718    0.36275012    0.00019962
 H                  2.77663160    3.35868854    0.00038538
 H                 -2.56869757    0.63310420    0.00044530
 H                 -2.41255367    3.62903795    0.00013970
 H                  0.26007789    4.99177067   -0.00002808

