%nprocshared=4
%mem=24GB
%chk=H6_ring_opt.chk
# opt freq b3lyp/cc-pvdz 6d

sto-6g 6D meta_Lowdin trans_dipo nt3

0 1
 H                 -0.05209700   -0.99989900   -0.00008800
 H                  0.83994500   -0.54509600    0.00000800
 H                  0.89203100    0.45485300    0.00007000
 H                 -0.89204600   -0.45486300    0.00009000
 H                 -0.83993000    0.54508700   -0.00001200
 H                  0.05209600    0.99991700   -0.00006800

