%nprocshared=24
%mem=180GB
%chk=C12H14_opt.chk
#p opt freq b3lyp/cc-pVDZ geom=connectivity

cc-pVDZ

0 1
 C                 -3.94883885    2.93606422   -0.84076207
 H                 -3.41567511    2.00835930   -0.84076207
 H                 -5.01883885    2.93606422   -0.84076207
 C                 -3.27356455    4.11104152   -0.84076207
 H                 -3.80672829    5.03874644   -0.84076207
 C                 -1.73356455    4.11104152   -0.84076207
 H                 -1.20040080    3.18333660   -0.84076207
 C                 -1.05132115    5.28198600   -0.84076207
 H                 -1.57896362    6.21284228   -0.84076207
 C                  0.48865167    5.27283624   -0.84076207
 H                  1.01629414    4.34197996   -0.84076207
 C                  1.17784008    6.43970658   -0.84076207
 H                  0.65573752    7.37368137   -0.84076207
 C                  2.71773136    6.42140739   -0.84076207
 H                  3.23983392    5.48743260   -0.84076207
 C                  3.41384045    7.58416238   -0.84076207
 H                  2.89729621    8.52122271   -0.84076207
 C                  4.95359582    7.55671440   -0.84076207
 H                  5.47014005    6.61965408   -0.84076207
 C                  5.65660101    8.71531301   -0.84076208
 H                  5.14563335    9.65542579   -0.84076178
 C                  7.19616613    8.67871721   -0.84076251
 H                  7.70713380    7.73860443   -0.84076220
 C                  7.90604262    9.83311854   -0.84076329
 H                  7.40066956   10.77625059   -0.84076360
 H                  8.97557050    9.80133653   -0.84076358

 1 2 1.0 3 1.0 4 2.0
 2
 3
 4 5 1.0 6 1.0
 5
 6 7 1.0 8 2.0
 7
 8 9 1.0 10 1.0
 9
 10 11 1.0 12 2.0
 11
 12 13 1.0 14 1.0
 13
 14 15 1.0 16 2.0
 15
 16 17 1.0 18 1.0
 17
 18 19 1.0 20 2.0
 19
 20 21 1.0 22 1.0
 21
 22 23 1.0 24 2.0
 23
 24 25 1.0 26 1.0
 25
 26

