%nprocshared=24
%mem=180GB
%chk=C12H14_z.chk
#p opt freq b3lyp/cc-pvdz geom=connectivity

cc-pVDZ

0 1
 C              
 H                  1            B1
 H                  1            B2    2            A1
 C                  1            B3    3            A2    2            D1    0
 H                  4            B4    1            A3    3            D2    0
 C                  4            B5    1            A4    3            D3    0
 H                  6            B6    4            A5    1            D4    0
 C                  6            B7    4            A6    1            D5    0
 H                  8            B8    6            A7    4            D6    0
 C                  8            B9    6            A8    4            D7    0
 H                 10           B10    8            A9    6            D8    0
 C                 10           B11    8           A10    6            D9    0
 H                 12           B12   10           A11    8           D10    0
 C                 12           B13   10           A12    8           D11    0
 H                 14           B14   12           A13   10           D12    0
 C                 14           B15   12           A14   10           D13    0
 H                 16           B16   14           A15   12           D14    0
 C                 16           B17   14           A16   12           D15    0
 H                 18           B18   16           A17   14           D16    0
 C                 18           B19   16           A18   14           D17    0
 H                 20           B20   18           A19   16           D18    0
 C                 20           B21   18           A20   16           D19    0
 H                 22           B22   20           A21   18           D20    0
 C                 22           B23   20           A22   18           D21    0
 H                 24           B24   22           A23   20           D22    0
 H                 24           B25   22           A24   20           D23    0

   B3             1.34724194
   B7             1.36026715
   B11            1.36375595
   B15            1.36375537
   B19            1.36026628
   B23            1.34724043
   B1             1.09408841
   B2             1.09166442
   B4             1.09681212
   B5             1.44744768
   B6             1.09698502
   B8             1.09723440
   B9             1.43795374
   B10            1.09697582
   B12            1.09706792
   B13            1.43597868
   B14            1.09707002
   B16            1.09697429
   B17            1.43795425
   B18            1.09723628
   B20            1.09698487
   B21            1.44744820
   B22            1.09681277
   B24            1.09408776
   B25            1.09166501
   A1           117.19999934
   A2           121.50310199
   A3           119.06368815
   A4           124.59899898
   A5           116.94075620
   A6           124.21326153
   A7           118.56380989
   A8           124.54939421
   A9           117.01795284
   A10          124.38651430
   A11          118.54983985
   A12          124.45662258
   A13          116.99291179
   A14          124.45827593
   A15          118.59649192
   A16          124.38494221
   A17          116.88610585
   A18          124.55101035
   A19          118.84693919
   A20          124.21188832
   A21          116.33652602
   A22          124.60018261
   A23          121.29768995
   A24          121.50249848
   D1           180.00000000
   D2             0.00000000
   D3           180.00000000
   D4             0.00000000
   D5           180.00000000
   D6             0.00000000
   D7           180.00000000
   D8             0.00000000
   D9           180.00000000
   D10            0.00000000
   D11          180.00000000
   D12            0.00000000
   D13          180.00000000
   D14           -0.00000000
   D15          180.00000000
   D16            0.00000000
   D17          180.00000000
   D18            0.00000000
   D19          180.00000000
   D20           -0.00000000
   D21          180.00000000
   D22           -0.00000000
   D23         -180.00000000

 1 2 1.0 3 1.0 4 2.0
 2
 3
 4 5 1.0 6 1.5
 5
 6 7 1.0 8 2.0
 7
 8 9 1.0 10 1.5
 9
 10 11 1.0 12 2.0
 11
 12 13 1.0 14 1.5
 13
 14 15 1.0 16 2.0
 15
 16 17 1.0 18 1.5
 17
 18 19 1.0 20 2.0
 19
 20 21 1.0 22 1.5
 21
 22 23 1.0 24 2.0
 23
 24 25 1.0 26 1.0
 25
 26

