%nprocshared=24
%mem=180GB
%chk=C12H14_1.5.chk
#p opt freq b3lyp/cc-pvdz

cc-pVDZ

0 1
 C                  0.00000000    0.00000000    0.00000000
 H                  0.00000000    0.00000000    1.09408841
 H                  0.97094422    0.00000000   -0.49899753
 C                 -1.72680098    0.00000000   -1.04978344
 H                 -1.68406150    0.00000000   -2.14576253
 C                 -3.04803837    0.00000000   -0.45865186
 H                 -3.10232677   -0.00000000    0.63698901
 C                 -4.78435883    0.00000000   -1.53029844
 H                 -4.72466170    0.00000000   -2.62590767
 C                 -6.10035270    0.00000000   -0.95075457
 H                 -6.16254299   -0.00000000    0.14445697
 C                 -7.83806514    0.00000000   -2.03009401
 H                 -7.77499614    0.00000000   -3.12534755
 C                 -9.15295864    0.00000000   -1.45295465
 H                 -9.21601580   -0.00000000   -0.35769832
 C                -10.89070149    0.00000000   -2.53224348
 H                -10.82856122    0.00000000   -3.62745633
 C                -12.20666320    0.00000000   -1.95262532
 H                -12.26628556   -0.00000000   -0.85701014
 C                -13.94307309    0.00000000   -3.02412450
 H                -13.88889559    0.00000000   -4.11977070
 C                -15.26424683    0.00000000   -2.43284940
 H                -15.30685241   -0.00000000   -1.33686444
 C                -16.99118142    0.00000000   -3.48240867
 H                -16.99133780    0.00000000   -4.57649642
 H                -17.96205646    0.00000000   -2.98327527

