%nprocshared=24
%mem=180GB
%chk=C12H14_2.chk
#p opt freq b3lyp/cc-pvdz

cc-pVDZ

0 1
 C                  0.00000000    0.00000000    0.00000000
 H                  0.00000000    0.00000000    1.09408841
 H                  0.97094422    0.00000000   -0.49899753
 C                 -2.30240131    0.00000000   -1.39971125
 H                 -2.25966182    0.00000000   -2.49569034
 C                 -3.62363870    0.00000000   -0.80857967
 H                 -3.67792709   -0.00000000    0.28706119
 C                 -5.93873264    0.00000000   -2.23744178
 H                 -5.87903551    0.00000000   -3.33305101
 C                 -7.25472651    0.00000000   -1.65789791
 H                 -7.31691680   -0.00000000   -0.56268637
 C                 -9.57167643    0.00000000   -3.09701716
 H                 -9.50860744    0.00000000   -4.19227070
 C                -10.88656994    0.00000000   -2.51987780
 H                -10.94962709    0.00000000   -1.42462147
 C                -13.20356040    0.00000000   -3.95892958
 H                -13.14142013    0.00000000   -5.05414243
 C                -14.51952211    0.00000000   -3.37931142
 H                -14.57914447    0.00000000   -2.28369624
 C                -16.83473530    0.00000000   -4.80797699
 H                -16.78055779    0.00000000   -5.90362319
 C                -18.15590903    0.00000000   -4.21670189
 H                -18.19851462    0.00000000   -3.12071693
 C                -20.45848849    0.00000000   -5.61611425
 H                -20.45864487    0.00000000   -6.71020200
 H                -21.42936353    0.00000000   -5.11698085

