%mem=25GB                                                                                                
%nprocshared=16
%chk=1qfb.chk
# mp2/cc-pvdz

cim{}

0 1
 N   18.65700000   27.63900000   16.00400000 
 C   18.97600000   26.31100000   15.43700000 
 C   19.32400000   25.32800000   16.54500000 
 O   20.17300000   24.47800000   16.35700000 
 H   18.75900000   27.65500000   17.03400000 
 H   17.66700000   27.86900000   15.78100000 
 H   19.25400000   28.37200000   15.59500000 
 H   18.11400000   25.94500000   14.90600000 
 H   19.82700000   26.41300000   14.77100000 
 N   18.66200000   25.46000000   17.66300000 
 C   18.88200000   24.55600000   18.84100000 
 C   17.45800000   24.01700000   19.10300000 
 O   16.51500000   24.75500000   18.85900000 
 C   19.39100000   25.36500000   20.07500000 
 S   21.07000000   26.02400000   20.03500000 
 H   17.96900000   26.15000000   17.78200000 
 H   19.56000000   23.75900000   18.57000000 
 H   18.71800000   26.19200000   20.25900000 
 H   19.31800000   24.71800000   20.93500000 
 N   17.29200000   22.79700000   19.55700000 
 C   18.36100000   21.75500000   19.65600000 
 C   18.76700000   21.28400000   18.24200000 
 O   18.53900000   21.96500000   17.26200000 
 C   17.75300000   20.60800000   20.49300000 
 C   16.28800000   21.02300000   20.83700000 
 C   15.96700000   22.32800000   20.05100000 
 O   16.26900000   21.38800000   22.21700000 
 H   19.21500000   22.17100000   20.14900000 
 H   18.38200000   20.38300000   21.34400000 
 H   17.72000000   19.70900000   19.88200000 
 H   15.56200000   20.24000000   20.63300000 
 H   15.51700000   23.09800000   20.65400000 
 H   15.32900000   22.13000000   19.20600000 
 H   15.43100000   21.06800000   22.57300000 
 N   19.35600000   20.12100000   18.21500000 
 C   19.81600000   19.47600000   16.94500000 
 C   18.96300000   18.16600000   16.77200000 
 C   18.55300000   17.55900000   18.13200000 
 C   17.26700000   17.42800000   18.56900000 
 N   17.39900000   16.87500000   19.75100000 
 C   18.62400000   16.61700000   20.17300000 
 C   19.26600000   16.06800000   21.29400000 
 C   20.66400000   15.97500000   21.33600000 
 C   21.41400000   16.42300000   20.25300000 
 C   20.77300000   16.96100000   19.14700000 
 C   19.38100000   17.07000000   19.09300000 
 C   21.31400000   19.14000000   16.99600000 
 O   21.74500000   18.19400000   16.35100000 
 H   19.51200000   19.65400000   19.06200000 
 H   19.64300000   20.14400000   16.11900000 
 H   19.55600000   17.43300000   16.27300000 
 H   18.07600000   18.38300000   16.19400000 
 H   16.36500000   17.71800000   18.05100000 
 H   16.60400000   16.65800000   20.29400000 
 H   18.68200000   15.71900000   22.13300000 
 H   21.16300000   15.55700000   22.20300000 
 H   22.50000000   16.37100000   20.24700000 
 H   21.38500000   17.29300000   18.33200000 
 N   22.08600000   19.89800000   17.72400000 
 C   23.53900000   19.58900000   17.80700000 
 C   23.97500000   19.89600000   19.26400000 
 O   23.35100000   20.64300000   19.98600000 
 C   24.35800000   20.46000000   16.79400000 
 C   24.47000000   19.80600000   15.38200000 
 C   25.91800000   19.68100000   14.93600000 
 O   26.67700000   19.02800000   15.62000000 
 O   26.21200000   20.24600000   13.89800000 
 H   21.73200000   20.66100000   18.23300000 
 H   23.66900000   18.53800000   17.61900000 
 H   23.81000000   21.34100000   16.64600000 
 H   25.33100000   20.77100000   17.15800000 
 H   24.00700000   18.83400000   15.36900000 
 H   23.93300000   20.43500000   14.67900000 
 N   25.07300000   19.29000000   19.62500000 
 C   25.60100000   19.13500000   21.01500000 
 C   26.37100000   20.38700000   21.41000000 
 O   26.76100000   20.57300000   22.54800000 
 C   26.53000000   17.97500000   20.93200000 
 C   27.16400000   18.26500000   19.50500000 
 C   25.98000000   18.66500000   18.64200000 
 H   24.77800000   18.98200000   21.70700000 
 H   27.27600000   17.98400000   21.71200000 
 H   26.00900000   17.03100000   20.94700000 
 H   27.80700000   19.14700000   19.52200000 
 H   27.70600000   17.47100000   19.02600000 
 H   26.28100000   19.40300000   17.91600000 
 H   25.43900000   17.84300000   18.20600000 
 N   26.55600000   21.20900000   20.42300000 
 C   27.31300000   22.46700000   20.61700000 
 C   26.57300000   23.75200000   21.04600000 
 O   27.15300000   24.82500000   20.99700000 
 C   28.10000000   22.55700000   19.27500000 
 C   27.31300000   22.75600000   17.94700000 
 C   27.98000000   22.82900000   16.78600000 
 C   26.01500000   22.99300000   17.67100000 
 N   27.07700000   23.12200000   15.88600000 
 C   25.84300000   23.24700000   16.31400000 
 C   24.90500000   22.96800000   18.47900000 
 C   24.58300000   23.50100000   15.78800000 
 C   23.65300000   23.20800000   17.96100000 
 C   23.46300000   23.48500000   16.61200000 
 H   26.18400000   20.98400000   19.53900000 
 H   28.03400000   22.27000000   21.39900000 
 H   28.77300000   23.40100000   19.39200000 
 H   28.70600000   21.66000000   19.17600000 
 H   29.01500000   22.63300000   16.66200000 
 H   27.26600000   23.23100000   14.92200000 
 H   25.00500000   22.71000000   19.50900000 
 H   24.45800000   23.70600000   14.74600000 
 H   22.82500000   23.12300000   18.62200000 
 H   22.47000000   23.68300000   16.22100000 
 N   25.32300000   23.58500000   21.44000000 
 C   24.53000000   24.77400000   21.89000000 
 C   25.01900000   25.09900000   23.31000000 
 O   24.35000000   24.88100000   24.29600000 
 C   23.01800000   24.42700000   21.91300000 
 S   22.17600000   24.35300000   20.31900000 
 H   24.93300000   22.67900000   21.41100000 
 H   24.70500000   25.58100000   21.20900000 
 H   22.88200000   23.47900000   22.40400000 
 H   22.51200000   25.16200000   22.52300000 
 N   26.20000000   25.62300000   23.44500000 
 H   26.74800000   25.80100000   22.65300000 
 H   26.53300000   25.84700000   24.33300000 

