%chk=H10-H10.chk
#

sto-6g 6D meta_Lowdin trans_dipo

0 1
 H                 -2.04504503    0.44144143    0.00000000
 H                 -1.59812003    1.77100650    0.53152119
 H                 -1.15119503    3.10057157    1.06304237
 H                 -0.70427562    4.43013933    1.59456154
 H                 -0.25735621    5.75970709    2.12608070
 H                  0.18956321    7.08927484    2.65759987
 H                  0.63648263    8.41884259    3.18911905
 H                  1.08340205    9.74841034    3.72063822
 H                  1.53032148   11.07797808    4.25215740
 H                  1.97724090   12.40754583    4.78367657
 H                 32.66570777  103.70453130   41.28132644
 H                 33.11262719  105.03409905   41.81284561
 H                 33.55954661  106.36366680   42.34436478
 H                 34.00646044  107.69323723   42.87588194
 H                 34.45337427  109.02280767   43.40739908
 H                 34.90028812  110.35237810   43.93891624
 H                 35.34720196  111.68194852   44.47043341
 H                 35.79411581  113.01151895   45.00195057
 H                 36.24102965  114.34108938   45.53346773
 H                 36.68794350  115.67065981   46.06498489

