%chk=H6H8H6.chk
#

sto-6g 6D dipole distance

0 1
 H                 64.28692708   67.79127929   72.65378846
 H                 65.14106635   68.49435198   73.66677162
 H                 64.53779274   69.53351082   74.56466349
 H                 62.82951792   68.12704466   72.53883316
 H                 62.22633729   69.16638357   73.43657909
 H                 63.08048858   69.86964211   74.44942310
 H                -61.30308865  -34.07385426  -74.66874902
 H                -60.44895926  -33.37064464  -73.65585256
 H                -59.59482987  -32.66743501  -72.64295612
 H                -58.74070451  -31.96422026  -71.63005982
 H                -57.88657916  -31.26100550  -70.61716354
 H                -57.03245380  -30.55779076  -69.60426725
 H                 -0.09076271   16.32319185   -2.07784809
 H                  0.76336266   17.02640659   -1.06495180
 H                  1.61748802   17.72962134   -0.05205552
 H                  2.47160937   18.43284121    0.96084061
 H                  3.32573070   19.13606109    1.97373672
 H                  4.17985205   19.83928095    2.98663285
 H                  5.03397340   20.54250079    3.99952897
 H                  5.88809475   21.24572065    5.01242509

