%nprocshared=4
%mem=30GB
%chk=anthracene_opt.chk
# opt freq b3lyp/6-31G

6-31G

0 1
 C                 -6.04179467   -2.88920299   -0.00751206
 C                 -4.67717167   -2.88920299   -0.00751206
 C                 -3.94428067   -1.65798199   -0.00751206
 C                 -4.66827767   -0.42623499   -0.01303006
 C                 -6.10051767   -0.46772599   -0.01433006
 C                 -6.76430067   -1.66001899   -0.01095906
 C                 -2.54537967   -1.63509299   -0.00261606
 C                 -3.96790067    0.78493201   -0.01475106
 C                 -2.56895967    0.80781601   -0.00912606
 C                 -1.84499067   -0.42388699   -0.00170606
 C                 -0.41280867   -0.38226299    0.00540394
 H                  0.13306133   -1.33778999    0.01200494
 C                  0.25092833    0.81009201    0.00644594
 C                 -0.47155467    2.03920701   -0.00172606
 C                 -1.83619767    2.03906201   -0.00909306
 H                 -1.98767667   -2.58432999    0.00170294
 H                 -6.60766667   -3.83248099   -0.00510806
 H                 -4.10784567   -3.83093699   -0.00440606
 H                 -6.64633067    0.48782001   -0.01893406
 H                 -7.86369867   -1.69618399   -0.01239006
 H                 -4.52603967    1.73391301   -0.01901906
 H                  1.35033433    0.84599601    0.01260594
 H                  0.09452533    2.98238401   -0.00063106
 H                 -2.40574067    2.98067901   -0.01536506


