%nprocshared=4
%mem=30GB
%chk=anthracene.chk
# opt freq b3lyp/6-31g

6-31G

0 1
 C                  3.66954300    0.71441200   -0.00003300
 C                  2.48479000    1.41018400    0.00006000
 C                  1.22658400    0.72455200    0.00006400
 C                  1.22658500   -0.72455300    0.00002900
 C                  2.48479100   -1.41018400   -0.00003800
 C                  3.66954400   -0.71440800   -0.00009100
 C                  0.00000000    1.40700700    0.00005100
 C                  0.00000100   -1.40700900    0.00003700
 C                 -1.22658300   -0.72455400    0.00004000
 C                 -1.22658400    0.72455100    0.00001700
 C                 -2.48479000    1.41018500   -0.00005600
 H                 -2.48198900    2.49660400   -0.00011700
 C                 -3.66954300    0.71441200   -0.00008400
 C                 -3.66954300   -0.71440900   -0.00001400
 C                 -2.48479200   -1.41018500    0.00004700
 H                 -0.00000600    2.49427400    0.00007200
 H                  4.61575700    1.24609700   -0.00006700
 H                  2.48198700    2.49660300    0.00014500
 H                  2.48199000   -2.49660300   -0.00004700
 H                  4.61575200   -1.24610400   -0.00017600
 H                 -0.00000600   -2.49427600    0.00006100
 H                 -4.61575400    1.24610300   -0.00013000
 H                 -4.61575400   -1.24610000   -0.00003200
 H                 -2.48199500   -2.49660300    0.00012000

