%nprocshared=8
%mem=30GB
%chk=benzene.chk
# opt freq b3lyp/6-31g

6-31G

0 1
 C                  0.00000000    0.00000000    0.00000000
 C                  0.00000000    0.00000000    1.40059917
 C                  1.21287589    0.00000000    2.10085291
 C                  2.42584240   -0.00016101    1.40054679
 C                  2.42584242   -0.00022900    0.00003528
 C                  1.21289083   -0.00008900   -0.70026083
 H                 -1.88031808    0.00013783   -1.08546430
 H                 -1.88032381    0.00021333    2.48605353
 H                  1.21301738    0.00010350    4.27198828
 H                  4.30602226   -0.00025081    2.48625050
 H                  4.30603070   -0.00040633   -1.08565383
 H                  1.21301839   -0.00012452   -2.87139621

