%nprocshared=8
%mem=30GB
%chk=benzene.chk
# opt freq b3lyp/6-31g

6-31G

0 1
 C                  0.00000000    0.00000000    0.00000000
 C                  0.00000000    0.00000000    1.40059917
 C                  1.21287589    0.00000000    2.10085291
 C                  2.42584240   -0.00016101    1.40054679
 C                  2.42584242   -0.00022900    0.00003528
 C                  1.21289083   -0.00008900   -0.70026083
 H                 -1.41023856    0.00010337   -0.81409822
 H                 -1.41024286    0.00016000    2.21468994
 H                  1.21298201    0.00007762    3.72920444
 H                  3.83597729   -0.00022836    2.21482457
 H                  3.83598363   -0.00036200   -0.81423155
 H                  1.21298650   -0.00011564   -2.32861236

