%nprocshared=8
%mem=30GB
%chk=benzene.chk
# opt freq b3lyp/6-31g

6-31G

0 1
 C                 -0.67898464    1.22492071    0.00000000
 C                  0.67898464    1.22492071   -0.00000000
 C                  1.40030478   -0.02444241    0.00000000
 C                  0.72132014   -1.20047830    0.00000000
 C                 -0.72132014   -1.20047830    0.00000000
 C                 -1.40030478   -0.02444241    0.00000000
 H                 -1.20527831    2.17437961    0.00000000
 H                  1.20527831    2.17437961   -0.00000000
 H                  2.48570713   -0.04338817    0.00000000
 H                  1.28042882   -2.13099144    0.00000000
 H                 -1.28042882   -2.13099144    0.00000000
 H                 -2.48570713   -0.04338817    0.00000000

