%nprocshared=8
%mem=30GB
%chk=benzene.chk
# opt freq b3lyp/6-31g

6-31G

0 1
 C                  1.40030478    0.02444248    0.00000000
 C                  0.67898458   -1.22492076    0.00000000
 C                 -0.67898458   -1.22492076    0.00000000
 C                 -1.40030478    0.02444248    0.00000000
 C                 -0.72132020    1.20047827    0.00000000
 C                  0.72132020    1.20047827   -0.00000000
 H                  2.48570714    0.04338833    0.00000000
 H                  1.20527817   -2.17437970    0.00000000
 H                 -1.20527817   -2.17437970    0.00000000
 H                 -2.48570714    0.04338833    0.00000000
 H                 -1.28042897    2.13099136    0.00000000
 H                  1.28042897    2.13099136   -0.00000000

