%nprocshared=8
%mem=30GB
%chk=benzene.chk
# opt freq b3lyp/6-31g

6-31G

0 1
 C                 -0.73176880    1.19413791    0.00000000
 C                  0.73176880    1.19413791   -0.00000000
 C                  1.40003816    0.03666141    0.00000000
 C                  0.66826937   -1.23079932    0.00000000
 C                 -0.66826937   -1.23079932    0.00000000
 C                 -1.40003816    0.03666141    0.00000000
 H                 -1.29897646    2.11973646    0.00000000
 H                  1.29897646    2.11973646   -0.00000000
 H                  2.48523386    0.06507838    0.00000000
 H                  1.18625740   -2.18481485    0.00000000
 H                 -1.18625740   -2.18481485    0.00000000
 H                 -2.48523386    0.06507838    0.00000000

