%nprocshared=8
%mem=30GB
%chk=benzene.chk
# opt freq b3lyp/6-31g

6-31G

0 1
 C                  0.00000000    0.00000000    0.00000000
 C                  0.00000000    0.00000000    4.20179751
 C                  3.63886401    0.00000000    6.30269518
 C                  7.27772793   -0.00048301    4.20179740
 C                  7.27772799   -0.00068702   -0.00000011
 C                  3.63886600   -0.00026701   -2.10089422
 H                 -0.94015904    0.00006891   -0.54273215
 H                 -0.94016387    0.00010666    4.74452583
 H                  3.63893476    0.00005175    7.38826266
 H                  8.21781798   -0.00052792    4.74464932
 H                  8.21782467   -0.00077568   -0.54284613
 H                  3.63892977   -0.00028477   -3.18646261

