%nprocshared=8
%mem=30GB
%chk=benzene.chk
# opt freq b3lyp/6-31g

6-31G

0 1
 C                  0.71607521    1.20361422    0.00000000
 C                  1.40039809    0.01833222    0.00000000
 C                  0.68432288   -1.22194643    0.00000000
 C                 -0.68432288   -1.22194643    0.00000000
 C                 -1.40039809    0.01833222    0.00000000
 C                 -0.71607521    1.20361422    0.00000000
 H                  1.27111846    2.13655806    0.00000000
 H                  2.48587279    0.03254185    0.00000000
 H                  1.21475433   -2.16909991    0.00000000
 H                 -1.21475433   -2.16909991    0.00000000
 H                 -2.48587279    0.03254185    0.00000000
 H                 -1.27111846    2.13655806    0.00000000

