%nprocshared=8
%mem=30GB
%chk=benzene.chk
# opt freq b3lyp/6-31g

6-31G

0 1
 C                  0.00000000    0.00000000    0.00000000
 C                  0.00000000    0.00000000    1.40059917
 C                  1.21287589    0.00000000    2.10085291
 C                  2.42584240   -0.00016101    1.40054679
 C                  2.42584242   -0.00022900    0.00003528
 C                  1.21289083   -0.00008900   -0.70026083
 H                 -3.76063616    0.00027565   -2.17092860
 H                 -3.76064761    0.00042665    3.57150790
 H                  1.21315887    0.00020699    6.44312365
 H                  6.18620211   -0.00034062    3.57195421
 H                  6.18621898   -0.00058365   -2.17134293
 H                  1.21314594   -0.00016003   -5.04253158

