%nprocshared=8
%mem=30GB
%chk=benzene.chk
# opt freq b3lyp/6-31g

6-31G

0 1
 C                  0.00000000    0.00000000    0.00000000
 C                  0.00000000    0.00000000    5.60239668
 C                  4.85181868    0.00000000    8.40359357
 C                  9.70363724   -0.00064402    5.60239653
 C                  9.70363731   -0.00091602   -0.00000015
 C                  4.85182133   -0.00035601   -2.80119229
 H                 -0.94015904    0.00006891   -0.54273215
 H                 -0.94016387    0.00010666    6.14512500
 H                  4.85188943    0.00005175    9.48916105
 H                 10.64372729   -0.00068892    6.14524846
 H                 10.64373400   -0.00100469   -0.54284617
 H                  4.85188511   -0.00037377   -3.88676069

