%nprocshared=8
%mem=30GB
%chk=benzene.chk
# opt freq b3lyp/6-31g

6-31G

0 1
 C                 -1.21288424   -0.70025904    0.00000000
 C                 -1.21288424    0.70025904    0.00000000
 C                  0.00000000    1.40051809    0.00000000
 C                  1.21288424    0.70025904    0.00000000
 C                  1.21288424   -0.70025904    0.00000000
 C                 -0.00000000   -1.40051809    0.00000000
 H                 -2.15301344   -1.24304289   -0.00000000
 H                 -2.15301344    1.24304289   -0.00000000
 H                  0.00000000    2.48608578   -0.00000000
 H                  2.15301344    1.24304289   -0.00000000
 H                  2.15301344   -1.24304289   -0.00000000
 H                 -0.00000000   -2.48608578   -0.00000000
 C                  0.00000000    0.00000000   -0.00000000

