%nprocshared=8
%mem=30GB
%chk=benzene.chk
# opt freq b3lyp/6-31g

6-31G

0 1
 C                  0.00000000    0.00000000    0.00000000
 C                  0.00000000    0.00000000    1.40059917
 C                  1.21287589    0.00000000    2.10085291
 C                  2.42584240   -0.00016101    1.40054679
 C                  2.42584242   -0.00022900    0.00003528
 C                  1.21289083   -0.00008900   -0.70026083
 H                 -2.82047712    0.00020674   -1.62819645
 H                 -2.82048571    0.00031999    3.02878071
 H                  1.21308813    0.00015524    5.35755597
 H                  5.24611218   -0.00029572    3.02910235
 H                  5.24612484   -0.00049499   -1.62849838
 H                  1.21308217   -0.00014228   -3.95696390

