%nprocshared=8
%mem=30GB
%chk=benzene.chk
# opt freq b3lyp/6-31g

6-31G

0 1
 C                  0.00000000    0.00000000    0.00000000
 C                  0.00000000    0.00000000    1.40059917
 C                  1.21287589    0.00000000    2.10085291
 C                  2.42584240   -0.00016101    1.40054679
 C                  2.42584242   -0.00022900    0.00003528
 C                  1.21289083   -0.00008900   -0.70026083
 H                 -0.75212723    0.00005513   -0.43418572
 H                 -0.75212952    0.00008533    1.83478092
 H                  1.21293249    0.00004140    2.96930706
 H                  3.17791434   -0.00019693    1.83482827
 H                  3.17791773   -0.00029993   -0.43424036
 H                  1.21294185   -0.00010321   -1.56871498

