%nprocshared=8
%mem=30GB
%chk=benzene.chk
# opt freq b3lyp/6-31g

6-31G

0 1
 C                 -0.70554456    1.20981725    0.00000000
 C                  0.70554456    1.20981725   -0.00000000
 C                  1.40050475    0.00611089    0.00000000
 C                  0.69496019   -1.21592814    0.00000000
 C                 -0.69496019   -1.21592814    0.00000000
 C                 -1.40050475    0.00611089    0.00000000
 H                 -1.25242532    2.14756916    0.00000000
 H                  1.25242532    2.14756916   -0.00000000
 H                  2.48606211    0.01084756    0.00000000
 H                  1.23363679   -2.15841672    0.00000000
 H                 -1.23363679   -2.15841672    0.00000000
 H                 -2.48606211    0.01084756    0.00000000

