%nprocshared=8
%mem=30GB
%chk=benzene.chk
# opt freq b3lyp/6-31g

6-31G

0 1
 C                  0.00000000   -1.40055741    0.00000000
 C                 -1.21291829   -0.70027870    0.00000000
 C                 -1.21291829    0.70027870    0.00000000
 C                 -0.00000000    1.40055741    0.00000000
 C                  1.21291829    0.70027870    0.00000000
 C                  1.21291829   -0.70027870    0.00000000
 H                  0.00000000   -2.48612510    0.00000000
 H                 -2.15304749   -1.24306255    0.00000000
 H                 -2.15304749    1.24306255    0.00000000
 H                 -0.00000000    2.48612510    0.00000000
 H                  2.15304749    1.24306255    0.00000000
 H                  2.15304749   -1.24306255    0.00000000


