%nprocshared=4
%mem=30GB
%chk=naphthalene_opt.chk
# opt freq b3lyp/6-31G

Title Card Required

0 1
 C                 -5.06080846   -1.07117776    0.00026300
 C                 -3.68800746   -1.07117776    0.00026300
 C                 -2.96606946    0.15394324    0.00026300
 C                 -3.68393946    1.37780924    0.00063300
 C                 -5.10535546    1.34843624    0.00078700
 C                 -5.77686046    0.15046124    0.00049700
 H                 -0.99699646   -0.77102176    0.00002000
 H                 -5.62153946   -2.01752376    0.00018300
 H                 -3.12321846   -2.01549976    0.00003500
 C                 -1.54434246    0.18348624    0.00000000
 C                 -2.96118946    2.60253524    0.00074800
 H                 -5.65259646    2.30289224    0.00086900
 H                 -6.87649746    0.12409424    0.00059900
 C                 -1.58832846    2.60260324    0.00047500
 C                 -0.87231646    1.38071124    0.00001600
 H                 -3.52564546    3.54707624    0.00100800
 H                 -1.02763646    3.54893424    0.00029700
 H                  0.22731154    1.40717624   -0.00016600


