%nprocshared=4
%mem=30GB
%chk=naphthalene.chk
# opt freq b3lyp/6-31g

6-31G

0 1
 C                  2.43968500   -0.70998300   -0.00000200
 C                  1.24760100   -1.40609600    0.00000100
 C                  0.00001200   -0.71899700    0.00000100
 C                 -0.00001300    0.71899400    0.00000100
 C                  1.24758800    1.40609700    0.00000200
 C                  2.43967300    0.70999500   -0.00000100
 H                 -1.24481400   -2.49262700    0.00000800
 H                  3.38392500   -1.24529600   -0.00000400
 H                  1.24483100   -2.49261700   -0.00000200
 C                 -1.24759400   -1.40610300    0.00000100
 C                 -1.24760300    1.40610300    0.00000000
 H                  1.24481700    2.49262300   -0.00000100
 H                  3.38391300    1.24530900   -0.00000400
 C                 -2.43968000    0.70998400   -0.00000100
 C                 -2.43967000   -0.70999300   -0.00000200
 H                 -1.24481500    2.49262100    0.00000600
 H                 -3.38393500    1.24527400   -0.00000500
 H                 -3.38391400   -1.24529900   -0.00000200

