%nprocshared=4
%mem=30GB
%chk=pyrene_opt.chk
# opt freq b3lyp/6-31G

Title Card Required

0 1
 C                 -5.70267642   -2.86595782   -0.02726855
 C                 -4.30982842   -2.86595782   -0.02726855
 C                 -3.60136542   -1.65747282   -0.02726855
 C                 -4.31847842   -0.43286382   -0.02723055
 C                 -5.73761242   -0.44219982   -0.02720055
 C                 -6.41442242   -1.66861782   -0.02730355
 C                 -2.16231042   -1.61539082   -0.02720355
 C                 -3.60969242    0.81294118   -0.02701155
 C                 -2.19060442    0.82226418   -0.02697655
 C                 -1.49148642   -0.43625682   -0.02711455
 C                 -1.51376142    2.04875418   -0.02681955
 H                 -0.41358042    2.06162218   -0.02685155
 C                 -2.22548442    3.24602518   -0.02666855
 C                 -3.61839942    3.24602518   -0.02664155
 C                 -4.32682542    2.03758918   -0.02684955
 C                 -5.76591242    1.99546018   -0.02705955
 C                 -6.43672842    0.81634218   -0.02721455
 H                 -7.53729642    0.78828818   -0.02773755
 H                 -6.30421942    2.95580818   -0.02697755
 H                 -1.62414742   -2.57579082   -0.02749955
 H                 -6.24689442   -3.82244082   -0.02753155
 H                 -3.75877542   -3.81824382   -0.02736255
 H                 -7.51457942   -1.68144982   -0.02768355
 H                 -0.39093742   -0.40831182   -0.02740155
 H                 -1.68135942    4.20259218   -0.02669355
 H                 -4.16937742    4.19838618   -0.02662355


