%nprocshared=4
%mem=30GB
%chk=tetraphene_opt.chk
# opt freq b3lyp/6-31G

6-31G

0 1
 C                     0.67400000    0.37300000   -0.01200000
 C                    -0.67400000   -0.37300000    0.01200000
 C                     1.97300000   -0.37200000    0.34800000
 C                    -1.97300000    0.37200000   -0.34800000
 C                    -0.72200000   -1.86300000    0.39600000
 C                     2.07000000    2.60900000   -0.41900000
 C                     3.32000000    0.37300000    0.32400000
 C                    -1.92400000    1.86300000   -0.73100000
 C                    -3.32000000   -0.37300000   -0.32400000
 C                    -2.07000000   -2.60900000    0.41900000
 C                     3.36800000    1.86400000   -0.06000000
 C                    -3.36800000   -1.86400000    0.06000000
 C                     4.62700000   -0.46400000    0.13200000
 C                     5.98500000    0.26200000    0.13200000
 C                     6.03500000    1.80100000    0.13200000
 C                     4.72700000    2.61400000    0.13200000
 C                     0.72200000    1.86300000   -0.39500000
 C                    -0.57700000    2.60900000   -0.75500000
 H                     1.93800000   -1.42800000    0.61900000
 H                     0.19700000   -2.39100000    0.65000000
 H                     2.10400000    3.66400000   -0.69100000
 H                    -2.84300000    2.39100000   -0.98600000
 H                    -4.23900000    0.15400000   -0.57800000
 H                    -2.10400000   -3.66400000    0.69100000
 H                    -4.32200000   -2.39100000    0.07700000
 H                     4.59200000   -1.54600000   -0.00100000
 H                     6.91100000   -0.31400000    0.13200000
 H                     6.99600000    2.31500000    0.13200000
 H                     4.76200000    3.69500000    0.26500000
 H                    -0.54200000    3.66400000   -1.02700000


