%nprocshared=4
%mem=30GB
%chk=tetraphene.chk
# opt freq b3lyp/6-31g

6-31G

0 1
 C                  0.34444000   -0.06125900   -0.00010200
 C                  1.77703700   -0.37975900   -0.00008000
 C                 -0.65275000   -1.03896200   -0.00029400
 C                  2.72771200    0.68707500   -0.00019800
 C                  2.26821900   -1.70636100    0.00029500
 C                 -1.42041300    1.65351000    0.00013600
 C                 -2.02673100   -0.71824600   -0.00015600
 C                  2.27033800    2.05630100   -0.00018000
 C                  4.11108500    0.39120800   -0.00013900
 C                  3.63149700   -1.97499900    0.00023500
 C                 -2.42515700    0.66741700    0.00012500
 C                  4.56354400   -0.91999700    0.00021600
 C                 -3.04214200   -1.72402000   -0.00027000
 C                 -4.37579400   -1.38190300   -0.00009800
 C                 -4.76860100   -0.01174200    0.00021500
 C                 -3.81865700    0.98466000    0.00033800
 C                 -0.06194200    1.32731800    0.00001100
 C                  0.94524000    2.36035600   -0.00006300
 H                 -0.38714600   -2.09049400   -0.00066600
 H                  1.57539800   -2.53970000    0.00062900
 H                 -1.71016500    2.70138400    0.00017900
 H                  3.01809200    2.84411300   -0.00030500
 H                  4.81935900    1.21503500   -0.00035700
 H                  3.97747200   -3.00373400    0.00048700
 H                  5.62768000   -1.13265300    0.00031300
 H                 -2.74059100   -2.76783100   -0.00066300
 H                 -5.13760500   -2.15493200   -0.00040500
 H                 -5.82429100    0.24022300    0.00031400
 H                 -4.11426700    2.03006800    0.00054500
 H                  0.61452200    3.39494200   -0.00001700

