%nprocshared=4
%mem=30GB
%chk=tetracene.chk
# opt freq b3lyp/6-31g

6-31G

0 1
 C                 -2.45604500   -0.72769400    0.00001600
 C                 -3.71909800   -1.41234800   -0.00001500
 C                 -1.23779100   -1.40966500    0.00009800
 C                 -4.90067300   -0.71654500   -0.00011200
 C                 -1.23780400    1.40966800    0.00002000
 C                  0.00001200   -0.72801000   -0.00001000
 C                 -4.90067900    0.71653700   -0.00012200
 C                  0.00000300    0.72801000    0.00003300
 C                  1.23779700   -1.40966400    0.00003200
 C                  2.45605100   -0.72769500    0.00006400
 C                  2.45604700    0.72769300    0.00005200
 C                  1.23779700    1.40966100    0.00011700
 C                 -2.45605500    0.72769900    0.00005900
 C                 -3.71910900    1.41234600    0.00000600
 C                  3.71909900   -1.41234700    0.00000300
 C                  4.90067600   -0.71653700   -0.00016000
 C                  4.90067100    0.71654200   -0.00006300
 C                  3.71909500    1.41235000   -0.00004700
 H                 -3.71653100   -2.49876300   -0.00001400
 H                 -1.23742800   -2.49683200    0.00028800
 H                 -5.84772300   -1.24668300   -0.00004200
 H                 -1.23744300    2.49683500    0.00006600
 H                 -5.84773300    1.24666600   -0.00021900
 H                  1.23745400   -2.49683000    0.00015200
 H                  1.23745900    2.49682800    0.00015800
 H                 -3.71655100    2.49876100    0.00006700
 H                  3.71655300   -2.49876200    0.00003400
 H                  5.84772500   -1.24667500   -0.00023100
 H                  5.84772000    1.24668300   -0.00004300
 H                  3.71654200    2.49876400   -0.00004900

