%nprocshared=4
%mem=30GB
%chk=C3H6.chk
# opt freq b3lyp/cc-pvdz

cc-pVDZ

0 1
 C                  0.00000000    0.00000000    0.00000000
 C                  0.00000000    0.00000000    1.51082147
 C                  1.30840952    0.00000000    0.75542623
 H                 -0.29672009   -0.91755100   -0.51391598
 H                 -0.29672009    0.91755100   -0.51391598
 H                 -0.29669728   -0.91754981    2.02475273
 H                 -0.29669728    0.91754981    2.02475273
 H                  1.90183804    0.91754829    0.75546907
 H                  1.90183804   -0.91754829    0.75546907

