%nprocshared=4
%mem=30GB
%chk=C3H6_2.chk
# opt freq b3lyp/cc-pvdz

cc-pVDZ

0 1
 C                  0.00000000    0.00000000    0.00000000
 C                  0.00000000    0.00000000    1.51082147
 C                  1.30840952    0.00000000    0.75542623
 H                 -0.59344018   -1.83510199   -1.02783195
 H                 -0.59344018    1.83510199   -1.02783195
 H                 -0.59339456   -1.83509962    2.53868400
 H                 -0.59339456    1.83509962    2.53868400
 H                  2.49526657    1.83509657    0.75551190
 H                  2.49526657   -1.83509657    0.75551190

