%nprocshared=4
%mem=30GB
%chk=C3H6_opt.chk
# opt freq b3lyp/cc-pVDZ

Title Card Required

0 1
 C                 -2.10169501   -1.05084744    0.00000000
 C                 -0.60058001   -1.05084744    0.00000000
 C                 -1.35116501    0.24912756    0.00000000
 H                 -2.63829101   -1.36072244   -0.91385800
 H                 -2.63829101   -1.36072244    0.91385800
 H                 -0.06401901   -1.36061444   -0.91388800
 H                 -0.06401901   -1.36061444    0.91388800
 H                 -1.35138801    0.86865556    0.91394400
 H                 -1.35138801    0.86865556   -0.91394400

