%nprocshared=4
%mem=30GB
%chk=C3H6_3.chk
# opt freq b3lyp/cc-pvdz

cc-pVDZ

0 1
 C                  0.00000000    0.00000000    0.00000000
 C                  0.00000000    0.00000000    1.51082147
 C                  1.30840952    0.00000000    0.75542623
 H                 -0.89016027   -2.75265299   -1.54174793
 H                 -0.89016027    2.75265299   -1.54174793
 H                 -0.89009184   -2.75264943    3.05261526
 H                 -0.89009184    2.75264943    3.05261526
 H                  3.08869510    2.75264486    0.75555473
 H                  3.08869510   -2.75264486    0.75555473

