%nprocshared=4
%mem=30GB
%chk=C3H6_z.chk
# opt freq b3lyp/cc-pvdz

cc-pVDZ

0 1
 C              
 C                  1            B1
 C                  2            B2    1            A1
 H                  1            B3    2            A2    3            D1    0
 H                  1            B3    2            A3    3            D2    0
 H                  2            B3    1            A4    3            D3    0
 H                  2            B3    1            A5    3            D4    0
 H                  3            B3    2            A6    1            D5    0
 H                  3            B3    2            A7    1            D6    0

   B1             1.51082147
   B2             1.51081350
   B3             1.09272699
   A1            60.00050419
   A2           118.05415652
   A3           118.05415652
   A4           118.05506490
   A5           118.05506490
   A6           118.05352659
   A7           118.05352659
   D1           107.92030834
   D2          -107.92030834
   D3          -107.91904049
   D4           107.91904049
   D5           107.92186981
   D6          -107.92186981

