%chk=H2O-4_3.chk
#

cc-pVDZ

0 1
 O                  0.00000000    0.00000000    0.00000000
 H                  0.00000000    0.00000000    2.92653000
 H                  2.75866860    0.00000000   -0.97689579
 O                  2.19127011   49.89012933    2.48461892
 H                  2.19127011   49.89012933    5.41114892
 H                  4.94993871   49.89012933    1.50772313
 O                  4.38254021   99.78025865    4.96923785
 H                  4.37467319   99.59369557    7.88980460
 H                  7.14377209   99.82502384    4.00064481
 O                  6.57381032  149.67038798    7.45385677
 H                  6.55677583  149.29888423   10.35666104
 H                  9.33771335  149.74546928    6.49480479

