%chk=H2O-4_1.5.chk
#

cc-pVDZ

0 1
 O                  0.00000000    0.00000000    0.00000000
 H                  0.00000000    0.00000000    1.46326500
 H                  1.37933430    0.00000000   -0.48844790
 O                  2.19127011   49.89012933    2.48461892
 H                  2.19127011   49.89012933    3.94788392
 H                  3.57060441   49.89012933    1.99617103
 O                  4.38254021   99.78025865    4.96923785
 H                  4.37860670   99.68697711    6.42952122
 H                  5.76315615   99.80264124    4.48494133
 O                  6.57381032  149.67038798    7.45385677
 H                  6.56529308  149.48463610    8.90525891
 H                  7.95576183  149.70792863    6.97433078

