%chk=H2O-4_4.chk
#

cc-pVDZ

0 1
 O                  0.00000000    0.00000000    0.00000000
 H                  0.00000000    0.00000000    3.90204000
 H                  3.67822480    0.00000000   -1.30252772
 O                  2.19127011   49.89012933    2.48461892
 H                  2.19127011   49.89012933    6.38665892
 H                  5.86949491   49.89012933    1.18209120
 O                  4.38254021   99.78025865    4.96923785
 H                  4.37205085   99.53150787    8.86332685
 H                  8.06418271   99.83994557    3.67778046
 O                  6.57381032  149.67038798    7.45385677
 H                  6.55109767  149.17504964   11.32426246
 H                 10.25901436  149.77049639    6.17512080

