%chk=H2O-4_2.chk
#

cc-pVDZ

0 1
 O                  0.00000000    0.00000000    0.00000000
 H                  0.00000000    0.00000000    1.95102000
 H                  1.83911240    0.00000000   -0.65126386
 O                  2.19127011   49.89012933    2.48461892
 H                  2.19127011   49.89012933    4.43563892
 H                  4.03038251   49.89012933    1.83335506
 O                  4.38254021   99.78025865    4.96923785
 H                  4.37729553   99.65588326    6.91628235
 H                  6.22336146   99.81010211    4.32350916
 O                  6.57381032  149.67038798    7.45385677
 H                  6.56245400  149.42271881    9.38905962
 H                  8.41641234  149.72044218    6.81448879

