%nprocshared=24
%mem=100GB
%chk=C60.chk
# opt=z-matrix freq b3lyp/cc-pvdz

cc-pVDZ sto-6g 6D meta_Lowdin trans_dipo

0 1
 C                  0.43816700   -1.90027900   -2.97232400
 C                 -0.74591300   -1.11648600   -3.29115800
 C                 -0.63908000    0.26318300   -3.48684000
 C                  0.65635200    0.91625200   -3.37132800
 C                  1.79352400    0.16376900   -3.06486200
 C                  1.68221500   -1.27302000   -2.86131200
 C                  0.05325400   -2.92765700   -2.01601800
 C                 -1.36882900   -2.77892300   -1.74415100
 C                 -1.86264200   -1.65946800   -2.53229400
 C                 -2.82829000   -0.80127600   -1.99904600
 C                 -1.64469600    1.15695800   -2.93171400
 C                  0.45153500    2.21354100   -2.74439000
 C                  1.39207000    2.70697300   -1.83599600
 C                  2.57644200    1.92359900   -1.51696000
 C                  2.77303400    0.67759100   -2.11891000
 C                  3.26708400   -0.44169500   -1.33058600
 C                  2.59272400   -1.64710100   -1.78934000
 C                  2.22311700   -2.63367500   -0.87099900
 C                  0.92767100   -3.28686800   -0.98654700
 C                 -1.85997900   -2.99542600   -0.45366900
 C                 -0.94941900   -3.36967300    0.61820400
 C                  0.41621200   -3.51249100    0.35718700
 C                  1.39563500   -2.99865500    1.30321000
 C                  2.51234600   -2.45553600    0.54414700
 C                  3.15989600   -1.29795800    0.98483700
 C                  3.54498700   -0.27060100    0.02848800
 C                  3.33992300    1.02687400    0.65531600
 C                  2.86555200    2.10178100   -0.10175300
 C                 -0.97048500    2.36230200   -2.47266900
 C                 -0.05326000    2.92765700    2.01601900
 C                 -0.92767500    3.28686700    0.98654900
 C                 -2.22311600    2.63367500    0.87099700
 C                 -2.59272600    1.64710300    1.78934100
 C                 -1.68222100    1.27302300    2.86131400
 C                  0.74591000    1.11648700    3.29115700
 C                  1.86264000    1.65947000    2.53229300
 C                  1.36883000    2.77892200    1.74415400
 C                  1.85998100    2.99542400    0.45367300
 C                  0.94941800    3.36967100   -0.61820400
 C                 -0.41621200    3.51248900   -0.35718900
 C                 -2.51234400    2.45553100   -0.54414800
 C                 -3.15989100    1.29795600   -0.98483800
 C                 -3.54498300    0.27059800   -0.02848900
 C                 -3.26708500    0.44169400    1.33058700
 C                 -2.77303600   -0.67759000    2.11891100
 C                 -1.79352600   -0.16376800    3.06486200
 C                 -0.65635200   -0.91625000    3.37132300
 C                  0.63907900   -0.26318100    3.48683400
 C                  2.82829200    0.80127600    1.99904600
 C                  2.71722800   -0.63550700    2.20281800
 C                  1.64469700   -1.15695900    2.93171000
 C                  0.97048800   -2.36230100    2.47266600
 C                 -0.45153600   -2.21354000    2.74438900
 C                 -1.39207000   -2.70697200    1.83600000
 C                 -2.57644300   -1.92360100    1.51696200
 C                 -2.86555100   -2.10177900    0.10175800
 C                 -3.33992000   -1.02687300   -0.65531200
 C                 -1.39563100    2.99865500   -1.30320900
 C                 -2.71722500    0.63550500   -2.20282000
 C                 -0.43817100    1.90028300    2.97232400

