%chk=H12_3.chk
#

sto-6g 6D meta_Lowdin trans_dipo

0 1
 H                  0.0    0.0   -18.0
 H                  0.0    0.0   -15.0
 H                  0.0    0.0   -12.0
 H                  0.0    0.0   -9.0
 H                  0.0    0.0   -6.0
 H                  0.0    0.0   -3.0
 H                  0.0    0.0   0.0
 H                  0.0    0.0   3.0
 H                  0.0    0.0   6.0
 H                  0.0    0.0   9.0
 H                  0.0    0.0   12.0
 H                  0.0    0.0   15.0

