%chk=H12_0.85.chk
#

sto-6g 6D meta_Lowdin trans_dipo

0 1
 H                  0.0    0.0    -5.1
 H                  0.0    0.0    -4.25
 H                  0.0    0.0    -3.4
 H                  0.0    0.0    -2.55
 H                  0.0    0.0    -1.7
 H                  0.0    0.0    -0.85
 H                  0.0    0.0    0.0
 H                  0.0    0.0    0.85
 H                  0.0    0.0    1.7
 H                  0.0    0.0    2.55
 H                  0.0    0.0    3.4
 H                  0.0    0.0    4.25

