%chk=H80_1.5.chk
#

sto-6g 6D meta_Lowdin trans_dipo

0 1
 H                 0.0  0.0   -60.0
 H                 0.0  0.0   -58.5
 H                 0.0  0.0   -57.0
 H                 0.0  0.0   -55.5
 H                 0.0  0.0   -54.0
 H                 0.0  0.0   -52.5
 H                 0.0  0.0   -51.0
 H                 0.0  0.0   -49.5
 H                 0.0  0.0   -48.0
 H                 0.0  0.0   -46.5
 H                 0.0  0.0   -45.0
 H                 0.0  0.0   -43.5
 H                 0.0  0.0   -42.0
 H                 0.0  0.0   -40.5
 H                 0.0  0.0   -39.0
 H                 0.0  0.0   -37.5
 H                 0.0  0.0   -36.0
 H                 0.0  0.0   -34.5
 H                 0.0  0.0   -33.0
 H                 0.0  0.0   -31.5
 H                 0.0  0.0   -30.0
 H                 0.0  0.0   -28.5
 H                 0.0  0.0   -27.0
 H                 0.0  0.0   -25.5
 H                 0.0  0.0   -24.0
 H                 0.0  0.0   -22.5
 H                 0.0  0.0   -21.0
 H                 0.0  0.0   -19.5
 H                 0.0  0.0   -18.0
 H                 0.0  0.0   -16.5
 H                 0.0  0.0   -15.0
 H                 0.0  0.0   -13.5
 H                 0.0  0.0   -12.0
 H                 0.0  0.0   -10.5
 H                 0.0  0.0   -9.0
 H                 0.0  0.0   -7.5
 H                 0.0  0.0   -6.0
 H                 0.0  0.0   -4.5
 H                 0.0  0.0   -3.0
 H                 0.0  0.0   -1.5
 H                 0.0  0.0   0.0
 H                 0.0  0.0   1.5
 H                 0.0  0.0   3.0
 H                 0.0  0.0   4.5
 H                 0.0  0.0   6.0
 H                 0.0  0.0   7.5
 H                 0.0  0.0   9.0
 H                 0.0  0.0   10.5
 H                 0.0  0.0   12.0
 H                 0.0  0.0   13.5
 H                 0.0  0.0   15.0
 H                 0.0  0.0   16.5
 H                 0.0  0.0   18.0
 H                 0.0  0.0   19.5
 H                 0.0  0.0   21.0
 H                 0.0  0.0   22.5
 H                 0.0  0.0   24.0
 H                 0.0  0.0   25.5
 H                 0.0  0.0   27.0
 H                 0.0  0.0   28.5
 H                 0.0  0.0   30.0
 H                 0.0  0.0   31.5
 H                 0.0  0.0   33.0
 H                 0.0  0.0   34.5
 H                 0.0  0.0   36.0
 H                 0.0  0.0   37.5
 H                 0.0  0.0   39.0
 H                 0.0  0.0   40.5
 H                 0.0  0.0   42.0
 H                 0.0  0.0   43.5
 H                 0.0  0.0   45.0
 H                 0.0  0.0   46.5
 H                 0.0  0.0   48.0
 H                 0.0  0.0   49.5
 H                 0.0  0.0   51.0
 H                 0.0  0.0   52.5
 H                 0.0  0.0   54.0
 H                 0.0  0.0   55.5
 H                 0.0  0.0   57.0
 H                 0.0  0.0   58.5

