%chk=H80_3.chk
#

sto-6g 6D meta_Lowdin trans_dipo

0 1
 H                 0.0  0.0   -120.0
 H                 0.0  0.0   -117.0
 H                 0.0  0.0   -114.0
 H                 0.0  0.0   -111.0
 H                 0.0  0.0   -108.0
 H                 0.0  0.0   -105.0
 H                 0.0  0.0   -102.0
 H                 0.0  0.0   -99.0
 H                 0.0  0.0   -96.0
 H                 0.0  0.0   -93.0
 H                 0.0  0.0   -90.0
 H                 0.0  0.0   -87.0
 H                 0.0  0.0   -84.0
 H                 0.0  0.0   -81.0
 H                 0.0  0.0   -78.0
 H                 0.0  0.0   -75.0
 H                 0.0  0.0   -72.0
 H                 0.0  0.0   -69.0
 H                 0.0  0.0   -66.0
 H                 0.0  0.0   -63.0
 H                 0.0  0.0   -60.0
 H                 0.0  0.0   -57.0
 H                 0.0  0.0   -54.0
 H                 0.0  0.0   -51.0
 H                 0.0  0.0   -48.0
 H                 0.0  0.0   -45.0
 H                 0.0  0.0   -42.0
 H                 0.0  0.0   -39.0
 H                 0.0  0.0   -36.0
 H                 0.0  0.0   -33.0
 H                 0.0  0.0   -30.0
 H                 0.0  0.0   -27.0
 H                 0.0  0.0   -24.0
 H                 0.0  0.0   -21.0
 H                 0.0  0.0   -18.0
 H                 0.0  0.0   -15.0
 H                 0.0  0.0   -12.0
 H                 0.0  0.0   -9.0
 H                 0.0  0.0   -6.0
 H                 0.0  0.0   -3.0
 H                 0.0  0.0   0.0
 H                 0.0  0.0   3.0
 H                 0.0  0.0   6.0
 H                 0.0  0.0   9.0
 H                 0.0  0.0   12.0
 H                 0.0  0.0   15.0
 H                 0.0  0.0   18.0
 H                 0.0  0.0   21.0
 H                 0.0  0.0   24.0
 H                 0.0  0.0   27.0
 H                 0.0  0.0   30.0
 H                 0.0  0.0   33.0
 H                 0.0  0.0   36.0
 H                 0.0  0.0   39.0
 H                 0.0  0.0   42.0
 H                 0.0  0.0   45.0
 H                 0.0  0.0   48.0
 H                 0.0  0.0   51.0
 H                 0.0  0.0   54.0
 H                 0.0  0.0   57.0
 H                 0.0  0.0   60.0
 H                 0.0  0.0   63.0
 H                 0.0  0.0   66.0
 H                 0.0  0.0   69.0
 H                 0.0  0.0   72.0
 H                 0.0  0.0   75.0
 H                 0.0  0.0   78.0
 H                 0.0  0.0   81.0
 H                 0.0  0.0   84.0
 H                 0.0  0.0   87.0
 H                 0.0  0.0   90.0
 H                 0.0  0.0   93.0
 H                 0.0  0.0   96.0
 H                 0.0  0.0   99.0
 H                 0.0  0.0   102.0
 H                 0.0  0.0   105.0
 H                 0.0  0.0   108.0
 H                 0.0  0.0   111.0
 H                 0.0  0.0   114.0
 H                 0.0  0.0   117.0

