%nprocshared=24
%mem=300GB
%chk=C14H30_4.chk
# opt freq b3lyp/cc-pvdz

6-31g

0 1
 C                  0.00000000    0.00000000    0.00000000
 H                  0.00000000    0.00000000    1.10354786
 H                  1.05349029    0.00000000   -0.32859752
 H                 -0.45270609   -0.94799072   -0.33301111
 C                 -3.01854620    4.84079399   -2.22045587
 H                 -3.03167072    4.79280339   -3.32519165
 H                 -4.07707867    4.79280437   -1.90403377
 C                 -0.63348984   10.20795614   -0.46600606
 H                  0.42606853   10.25623973   -0.78216507
 H                 -0.61981021   10.25624160    0.63963093
 C                 -3.62770700   15.08030940   -2.66856544
 H                 -4.68700915   15.03114760   -2.35239497
 H                 -3.64130216   15.03114625   -3.77396102
 C                 -1.24272357   20.44703411   -0.91416928
 H                 -0.18348121   20.49647682   -1.23035888
 H                 -1.22916588   20.49647808    0.19117516
 C                 -4.23911366   25.31854719   -3.11832706
 H                 -5.29836687   25.26916941   -2.80216778
 H                 -4.25270272   25.26916823   -4.22367224
 C                 -1.85450587   30.68564901   -1.36420723
 H                 -0.79525879   30.73505750   -1.68036606
 H                 -1.84091798   30.73505875   -0.25886665
 C                 -4.85096015   35.55724753   -3.56841224
 H                 -5.91020703   35.50782683   -3.25225698
 H                 -4.86455198   35.50782557   -4.67375075
 C                 -2.46649049   40.92456735   -1.81439401
 H                 -1.40724327   40.97395535   -2.13054156
 H                 -2.45289260   40.97395653   -0.70905724
 C                 -5.46274918   45.79646798   -4.01845514
 H                 -6.52198818   45.74697780   -3.70229534
 H                 -5.47633373   45.74697654   -5.12378830
 C                 -3.07836369   51.16374260   -2.26449883
 H                 -2.01906060   51.21296062   -2.58063137
 H                 -3.06473403   51.21296188   -1.15911262
 C                 -6.07376401   56.03576372   -4.46792854
 H                 -7.13334591   55.98717127   -4.15184221
 H                 -6.08752000   55.98717010   -5.57356658
 C                 -3.69163884   61.40423639   -2.71563493
 H                 -2.63311945   61.45259038   -3.03204601
 H                 -3.67850865   61.45259156   -1.61091531
 C                 -6.71193237   66.24305159   -4.93737614
 H                 -7.76566981   66.24278598   -4.60883826
 H                 -6.25968354   67.19161540   -4.60470139
 H                 -6.71206131   66.24278480   -6.04114249

