%chk=H8_0.85.chk
#

sto-6g 6D meta_Lowdin trans_dipo nt4

0 1
 H                 0.0    0.0    -3.40
 H                 0.0    0.0    -2.55
 H                 0.0    0.0    -1.70
 H                 0.0    0.0    -0.85
 H                 0.0    0.0    0.00
 H                 0.0    0.0    0.85
 H                 0.0    0.0    1.70
 H                 0.0    0.0    2.55

