%chk=H30_0.8.chk
#

sto-6g 6D meta_Lowdin trans_dipo

0 1
 H                 0.0  0.0   -12.0
 H                 0.0  0.0   -11.2
 H                 0.0  0.0   -10.4
 H                 0.0  0.0   -9.6
 H                 0.0  0.0   -8.8
 H                 0.0  0.0   -8.0
 H                 0.0  0.0   -7.2
 H                 0.0  0.0   -6.4
 H                 0.0  0.0   -5.6
 H                 0.0  0.0   -4.8
 H                 0.0  0.0   -4.0
 H                 0.0  0.0   -3.2
 H                 0.0  0.0   -2.4
 H                 0.0  0.0   -1.6
 H                 0.0  0.0   -0.8
 H                 0.0  0.0   0.0
 H                 0.0  0.0   0.8
 H                 0.0  0.0   1.6
 H                 0.0  0.0   2.4
 H                 0.0  0.0   3.2
 H                 0.0  0.0   4.0
 H                 0.0  0.0   4.8
 H                 0.0  0.0   5.6
 H                 0.0  0.0   6.4
 H                 0.0  0.0   7.2
 H                 0.0  0.0   8.0
 H                 0.0  0.0   8.8
 H                 0.0  0.0   9.6
 H                 0.0  0.0   10.4
 H                 0.0  0.0   11.2

