%chk=H4-H4.chk
#

sto-6g 6D meta_Lowdin trans_dipo nt4

0 1
 H                 0.0   0.0    -4.5
 H                 0.0   0.0    -3.0
 H                 0.0   0.0    -1.5
 H                 0.0   0.0     0.0
 H                 0.0   0.0   120.0
 H                 0.0   0.0   122.0
 H                 0.0   0.0   124.0
 H                 0.0   0.0   126.0

