%chk=H6-H2.chk
#

sto-6g 6D meta_Lowdin trans_dipo nt4

0 1
 H                 -9.90463917    3.30962754    8.21072652
 H                 -9.45771417    4.63919261    8.74224771
 H                 -9.01078917    5.96875768    9.27376889
 H                 -8.56386976    7.29832544    9.80528806
 H                 -8.11695036    8.62789320   10.33680722
 H                 -7.67003094    9.95746095   10.86832639
 H                 22.12459707   98.59531099   46.30293774
 H                 22.57151649   99.92487874   46.83445691

