%nprocshared=24
%mem=300GB
%chk=C13H28-opt.chk
# opt freq b3lyp/cc-pVDZ

Title Card Required

0 1
 C                 -2.55841621   -0.60767590    0.03349147
 H                 -2.20176178   -1.61648590    0.03349147
 H                 -2.20174337   -0.10327771    0.90714297
 H                 -2.20174337   -0.10327771   -0.84016004
 C                 -4.09841621   -0.60765692    0.03349147
 H                 -4.45507013    0.40115136    0.03544747
 H                 -4.45508926   -1.11036032   -0.84113624
 C                 -4.61175806   -1.33605062    1.28948620
 H                 -4.25477749   -0.83356445    2.16411327
 H                 -4.25541111   -2.34496700    1.28734162
 C                 -6.15175796   -1.33556321    1.28975790
 H                 -6.50873766   -1.83797719    0.41508900
 H                 -6.50810512   -0.32664709    1.29198552
 C                 -6.66509985   -2.06406013    2.54569275
 H                 -6.30811243   -1.56165071    3.42036112
 H                 -6.30875979   -3.07297875    2.54346105
 C                 -8.20509975   -2.06356224    2.54597053
 H                 -8.56208632   -2.56596982    1.67130076
 H                 -8.56144004   -1.05464371    2.54820414
 C                 -8.71844164   -2.79206136    3.80190410
 H                 -8.36145567   -2.28965246    4.67657335
 H                 -8.36210013   -3.80097947    3.79967152
 C                -10.25844154   -2.79156569    3.80218060
 H                -10.61542666   -3.29397582    2.92751170
 H                -10.61478328   -1.78264766    3.80441155
 C                -10.77178343   -3.52006261    5.05811544
 H                -10.41479889   -3.01765117    5.93278382
 H                -10.41544049   -4.52898022    5.05588550
 C                -12.31178332   -3.51956912    5.05839067
 H                -12.66876702   -4.02198179    4.18372265
 H                -12.66812650   -2.51065159    5.06061899
 C                -12.82512522   -4.24806385    6.31432679
 H                -12.46814211   -3.74564987    7.18899429
 H                -12.46878084   -5.25698096    6.31209949
 C                -14.36512511   -4.24757254    6.31460075
 H                -14.72210738   -4.74998776    5.43993361
 H                -14.72146972   -3.23865552    6.31682643
 C                -14.87846701   -4.97606508    7.57053814
 H                -14.52148533   -4.47364855    8.44520477
 H                -15.94846693   -4.97572523    7.57072761
 H                -14.52212120   -5.98498169    7.56831348

