%nprocshared=24
%mem=300GB
%chk=C13H28_4.chk
# opt freq b3lyp/cc-pvdz

6-31g

0 1
 C                  0.00000000    0.00000000    0.00000000
 H                  0.00000000    0.00000000    1.10362613
 H                  1.05356750    0.00000000   -0.32860894
 H                 -0.45267046   -0.94810462   -0.33298613
 C                 -3.01882196    4.84068830   -2.22069988
 H                 -3.03197234    4.79267908   -3.32550789
 H                 -4.07743261    4.79267536   -1.90429168
 C                 -0.63395320   10.20774661   -0.46631812
 H                  0.42567023   10.25603740   -0.78250146
 H                 -0.62025342   10.25601457    0.63938937
 C                 -3.62789557   15.08032661   -2.66854187
 H                 -4.68726554   15.03121510   -2.35234839
 H                 -3.64149407   15.03124694   -3.77400977
 C                 -1.24239443   20.44648618   -0.91365522
 H                 -0.18307851   20.49586282   -1.22985743
 H                 -1.22883645   20.49583907    0.19176425
 C                 -4.23830395   25.31822069   -3.11739061
 H                 -5.29763159   25.26892244   -2.80121440
 H                 -4.25188617   25.26894840   -4.22281425
 C                 -1.85301155   30.68452153   -1.36265750
 H                 -0.79369048   30.73384964   -1.67883705
 H                 -1.83943257   30.73382620   -0.25723847
 C                 -4.84909637   35.55610756   -3.56652184
 H                 -5.90841994   35.50674724   -3.25034165
 H                 -4.86267613   35.50677167   -4.67194268
 C                 -2.46399498   40.92252320   -1.81192924
 H                 -1.40467335   40.97180141   -2.12812701
 H                 -2.45043177   40.97177705   -0.70650443
 C                 -5.46026951   45.79393134   -4.01593313
 H                 -6.51961486   45.74437828   -3.69972800
 H                 -5.47383333   45.74440265   -5.12138199
 C                 -3.07724462   51.16081790   -2.26286803
 H                 -2.01774172   51.21120982   -2.57912907
 H                 -3.06368540   51.21118622   -1.15725297
 C                 -6.07298156   56.03323407   -4.46647645
 H                 -7.13144377   55.98271868   -4.14995712
 H                 -6.08598490   55.98274295   -5.57117436
 C                 -3.66148183   61.37314148   -2.69246544
 H                 -2.61366192   61.46948091   -3.02530267
 H                 -4.22171607   62.22812968   -3.10456429
 H                 -3.66722555   61.46945653   -1.59306600

