%nprocshared=24
%mem=300GB
%chk=C13H28-z.chk
# opt freq b3lyp/cc-pvdz

6-31g

0 1
 C              
 H                  1            B1
 H                  1            B2    2            A1
 H                  1            B3    3            A2    2            D1    0
 C                  1            B4    4            A3    2            D2    0
 H                  5            B5    1            A4    4            D3    0
 H                  5            B6    1            A5    4            D4    0
 C                  5            B7    1            A6    4            D5    0
 H                  8            B8    5            A7    1            D6    0
 H                  8            B9    5            A8    1            D7    0
 C                  8           B10    5            A9    1            D8    0
 H                 11           B11    8           A10    5            D9    0
 H                 11           B12    8           A11    5           D10    0
 C                 11           B13    8           A12    5           D11    0
 H                 14           B14   11           A13    8           D12    0
 H                 14           B15   11           A14    8           D13    0
 C                 14           B16   11           A15    8           D14    0
 H                 17           B17   14           A16   11           D15    0
 H                 17           B18   14           A17   11           D16    0
 C                 17           B19   14           A18   11           D17    0
 H                 20           B20   17           A19   14           D18    0
 H                 20           B21   17           A20   14           D19    0
 C                 20           B22   17           A21   14           D20    0
 H                 23           B23   20           A22   17           D21    0
 H                 23           B24   20           A23   17           D22    0
 C                 23           B25   20           A24   17           D23    0
 H                 26           B26   23           A25   20           D24    0
 H                 26           B27   23           A26   20           D25    0
 C                 26           B28   23           A27   20           D26    0
 H                 29           B29   26           A28   23           D27    0
 H                 29           B30   26           A29   23           D28    0
 C                 29           B31   26           A30   23           D29    0
 H                 32           B32   29           A31   26           D30    0
 H                 32           B33   29           A32   26           D31    0
 C                 32           B34   29           A33   26           D32    0
 H                 35           B35   32           A34   29           D33    0
 H                 35           B36   32           A35   29           D34    0
 C                 35           B37   32           A36   29           D35    0
 H                 38           B38   35           A37   32           D36    0
 H                 38           B39   35           A38   32           D37    0
 H                 38           B40   35           A39   32           D38    0

   B4             1.53046270
   B7             1.53237498
   B10            1.53206389
   B13            1.53227591
   B16            1.53227202
   B19            1.53227553
   B22            1.53227553
   B25            1.53227202
   B28            1.53227591
   B31            1.53206389
   B34            1.53237498
   B37            1.53046270
   B1             1.10362613
   B2             1.10362508
   B3             1.10213097
   B5             1.10592882
   B6             1.10592762
   B8             1.10684494
   B9             1.10684531
   B11            1.10664131
   B12            1.10664041
   B14            1.10660386
   B15            1.10660369
   B17            1.10660416
   B18            1.10660457
   B20            1.10660015
   B21            1.10660136
   B23            1.10660416
   B24            1.10660457
   B26            1.10660367
   B27            1.10660468
   B29            1.10664076
   B30            1.10664097
   B32            1.10684542
   B33            1.10684483
   B35            1.10592881
   B36            1.10592763
   B38            1.10362514
   B39            1.10213097
   B40            1.10362526
   A1           107.32276147
   A2           107.58578088
   A3           111.59743246
   A4           109.50686799
   A5           109.50640310
   A6           113.37051403
   A7           109.20331959
   A8           109.20354681
   A9           113.78214821
   A10          109.25156065
   A11          109.25150603
   A12          113.77147161
   A13          109.25840921
   A14          109.25841862
   A15          113.74824251
   A16          109.25532156
   A17          109.25529369
   A18          113.75100143
   A19          109.25513526
   A20          109.25511020
   A21          113.74854212
   A22          109.25374444
   A23          109.25371658
   A24          113.75100143
   A25          109.25108498
   A26          109.25104747
   A27          113.74824251
   A28          109.24625120
   A29          109.24625681
   A30          113.77147162
   A31          109.29063655
   A32          109.29069101
   A33          113.78214822
   A34          109.18155992
   A35          109.18162406
   A36          113.37051403
   A37          111.26901783
   A38          111.59743245
   A39          111.26906127
   D1          -115.52188102
   D2          -122.32601028
   D3           -57.80498592
   D4            57.80482018
   D5           179.99947041
   D6            57.60479310
   D7           -57.60179357
   D8          -179.99856781
   D9            57.63197675
   D10          -57.63271153
   D11          179.99967300
   D12           57.63657721
   D13          -57.63765784
   D14          179.99946868
   D15           57.63394750
   D16          -57.63420475
   D17          180.00000000
   D18           57.63404913
   D19          -57.63418184
   D20          180.00000000
   D21           57.63316000
   D22          -57.63325385
   D23         -180.00000000
   D24           57.63306675
   D25          -57.63310599
   D26          180.00000000
   D27           57.62942291
   D28          -57.62944860
   D29          180.00000000
   D30           57.65137002
   D31          -57.65130367
   D32          180.00000000
   D33           57.62434396
   D34          -57.62425044
   D35          180.00000000
   D36           59.81499121
   D37         -180.00000000
   D38          -59.81486961

