%nprocshared=4
%mem=30GB
%chk=C6H8_z.chk
# opt freq b3lyp/cc-pvdz

6-31G

0 1
 C                  0.00000000    0.00000000    0.00000000
 H                  0.00000000    0.00000000    3.28256706
 H                  2.92019177    0.00000000   -1.49924198
 C                 -1.14968675    0.00000000   -0.69904803
 H                 -1.02731115    0.00000000   -3.97933319
 C                 -2.47335010    0.00000000   -0.10426906
 H                 -2.62182795   -0.00000000    3.17493829
 C                 -3.62834609    0.00000000   -0.81201651
 H                 -3.47993529    0.00000000   -4.09122689
 C                 -4.95199310   -0.00000000   -0.21718765
 H                 -5.07417726   -0.00000000    3.06310464
 C                 -6.10172497    0.00000000   -0.91616012
 H                 -6.10200955    0.00000000   -4.19872717
 H                 -9.02179448   -0.00000000    0.58331997

