%nprocshared=4
%mem=30GB
%chk=C6H8_z.chk
# opt freq b3lyp/cc-pvdz

6-31G

0 1
 C                  0.00000000    0.00000000    0.00000000
 H                  0.00000000    0.00000000    1.64128353
 H                  1.46009589    0.00000000   -0.74962099
 C                 -1.14968675    0.00000000   -0.69904803
 H                 -1.08849895    0.00000000   -2.33919061
 C                 -2.47335010    0.00000000   -0.10426906
 H                 -2.54758902   -0.00000000    1.53533461
 C                 -3.62834609    0.00000000   -0.81201651
 H                 -3.55414069    0.00000000   -2.45162170
 C                 -4.95199310   -0.00000000   -0.21718765
 H                 -5.01308518   -0.00000000    1.42295850
 C                 -6.10172497    0.00000000   -0.91616012
 H                 -6.10186726    0.00000000   -2.55744365
 H                 -7.56175972   -0.00000000   -0.16642008

