%nprocshared=4
%mem=30GB
%chk=C6H8_z.chk
# opt freq b3lyp/cc-pvdz

6-31G

0 1
 C                  0.00000000    0.00000000    0.00000000
 H                  0.00000000    0.00000000    2.18837804
 H                  1.94679451    0.00000000   -0.99949466
 C                 -1.14968675    0.00000000   -0.69904803
 H                 -1.06810302    0.00000000   -2.88590480
 C                 -2.47335010    0.00000000   -0.10426906
 H                 -2.57233533   -0.00000000    2.08186917
 C                 -3.62834609    0.00000000   -0.81201651
 H                 -3.52940556    0.00000000   -2.99815677
 C                 -4.95199310   -0.00000000   -0.21718765
 H                 -5.03344921   -0.00000000    1.96967388
 C                 -6.10172497    0.00000000   -0.91616012
 H                 -6.10191469    0.00000000   -3.10453815
 H                 -8.04843798   -0.00000000    0.08349327

