%nprocshared=4
%mem=30GB
%chk=C6H8_z.chk
# opt freq b3lyp/cc-pvdz

6-31G

0 1
 C                  0.00000000    0.00000000    0.00000000
 H                  0.00000000    0.00000000    1.09418902
 H                  0.97339726    0.00000000   -0.49974733
 C                 -1.14968675    0.00000000   -0.69904803
 H                 -1.10889489    0.00000000   -1.79247642
 C                 -2.47335010    0.00000000   -0.10426906
 H                 -2.52284272   -0.00000000    0.98880006
 C                 -3.62834609    0.00000000   -0.81201651
 H                 -3.57887582    0.00000000   -1.90508664
 C                 -4.95199310   -0.00000000   -0.21718765
 H                 -4.99272115   -0.00000000    0.87624311
 C                 -6.10172497    0.00000000   -0.91616012
 H                 -6.10181983    0.00000000   -2.01034914
 H                 -7.07508147    0.00000000   -0.41633342

