%chk=H16_1.5.chk
#

sto-6g 6D meta_Lowdin trans_dipo

0 1
 H                  0.00000000   -0.00000000    0.0
 H                  0.00000000   -0.00000000    1.5
 H                  0.00000000   -0.00000000    3.0
 H                 -0.00000000    0.00000000    4.5
 H                 -0.00000000    0.00000000    6.0
 H                 -0.00000000    0.00000000    7.5
 H                 -0.00000000    0.00000000    9.0
 H                 -0.00000000    0.00000000    10.5
 H                  0.00000000    0.00000000    12.0
 H                  0.00000000    0.00000000    13.5
 H                  0.00000000    0.00000000    15.0
 H                  0.00000000    0.00000000    16.5
 H                  0.00000000    0.00000000    18.0
 H                 -0.00000000   -0.00000000    19.5
 H                 -0.00000000   -0.00000000    21.0
 H                 -0.00000000   -0.00000000    22.5

