%chk=H16_1.2.chk
#

sto-6g 6D meta_Lowdin trans_dipo

0 1
 H                  0.00000000   -0.00000000    0.0
 H                  0.00000000   -0.00000000    1.2
 H                  0.00000000   -0.00000000    2.4
 H                 -0.00000000    0.00000000    3.6
 H                 -0.00000000    0.00000000    4.8
 H                 -0.00000000    0.00000000    6.0
 H                 -0.00000000    0.00000000    7.2
 H                 -0.00000000    0.00000000    8.4
 H                  0.00000000    0.00000000    9.6
 H                  0.00000000    0.00000000    10.8
 H                  0.00000000    0.00000000    12.0
 H                  0.00000000    0.00000000    13.2
 H                  0.00000000    0.00000000    14.4
 H                 -0.00000000   -0.00000000    15.6
 H                 -0.00000000   -0.00000000    16.8
 H                 -0.00000000   -0.00000000    18.0

