%chk=H16_5.5.chk
#

sto-6g 6D meta_Lowdin trans_dipo

0 1
 H                  0.00000000   -0.00000000    0.0
 H                  0.00000000   -0.00000000    5.0
 H                  0.00000000   -0.00000000    10.0
 H                 -0.00000000    0.00000000    15.0
 H                 -0.00000000    0.00000000    20.0
 H                 -0.00000000    0.00000000    25.0
 H                 -0.00000000    0.00000000    30.0
 H                 -0.00000000    0.00000000    35.0
 H                  0.00000000    0.00000000    40.0
 H                  0.00000000    0.00000000    45.0
 H                  0.00000000    0.00000000    50.0
 H                  0.00000000    0.00000000    55.0
 H                  0.00000000    0.00000000    60.0
 H                 -0.00000000   -0.00000000    65.0
 H                 -0.00000000   -0.00000000    70.0
 H                 -0.00000000   -0.00000000    75.0

