%chk=H16_2.3.chk
#

sto-6g 6D meta_Lowdin trans_dipo

0 1
 H                  0.00000000   -0.00000000    0.0
 H                  0.00000000   -0.00000000    2.3
 H                  0.00000000   -0.00000000    4.6
 H                 -0.00000000    0.00000000    6.9
 H                 -0.00000000    0.00000000    9.2
 H                 -0.00000000    0.00000000    11.5
 H                 -0.00000000    0.00000000    13.8
 H                 -0.00000000    0.00000000    16.1
 H                  0.00000000    0.00000000    18.4
 H                  0.00000000    0.00000000    20.7
 H                  0.00000000    0.00000000    23.0
 H                  0.00000000    0.00000000    25.3
 H                  0.00000000    0.00000000    27.6
 H                 -0.00000000   -0.00000000    29.9
 H                 -0.00000000   -0.00000000    32.2
 H                 -0.00000000   -0.00000000    34.5

