%chk=H16_0.76.chk
#

sto-6g 6D meta_Lowdin trans_dipo

0 1
 H                  0.00000000   -0.00000000    0.0
 H                  0.00000000   -0.00000000    0.76
 H                  0.00000000   -0.00000000    1.52
 H                 -0.00000000    0.00000000    2.280
 H                 -0.00000000    0.00000000    3.04
 H                 -0.00000000    0.00000000    3.8
 H                 -0.00000000    0.00000000    4.560
 H                 -0.00000000    0.00000000    5.32
 H                  0.00000000    0.00000000    6.08
 H                  0.00000000    0.00000000    6.84
 H                  0.00000000    0.00000000    7.6
 H                  0.00000000    0.00000000    8.36
 H                  0.00000000    0.00000000    9.120
 H                 -0.00000000   -0.00000000    9.88
 H                 -0.00000000   -0.00000000    10.64
 H                 -0.00000000   -0.00000000    11.4

