%nprocshared=24
%mem=300GB
%chk=C14H20.chk
# opt=z-matrix freq b3lyp/cc-pvdz

cc-pVDZ 10 

0 1
 C                 -5.82052200    1.86995700   -1.02272900
 H                 -6.68069100    1.67636700   -0.37321800
 H                 -6.02557000    2.32630700   -1.99459700
 C                 -4.57557900    1.56776800   -0.64086000
 H                 -3.73998800    1.77201900   -1.32231600
 C                 -4.19918200    0.93132800    0.67561100
 H                 -3.51402800    1.60012400    1.22725300
 H                 -5.10966000    0.81951100    1.29194700
 C                 -3.53329200   -0.41191300    0.49508300
 H                 -4.14192500   -1.18309400    0.00423800
 C                 -2.28428600   -0.70820300    0.86820400
 H                 -1.67064400    0.06693100    1.34635300
 C                 -1.61116300   -2.04534900    0.67065300
 H                 -1.30856100   -2.45873500    1.64985000
 H                 -2.33954400   -2.75219000    0.23362600
 C                 -0.39352200   -1.94955100   -0.21768100
 H                 -0.57788400   -1.59747600   -1.24129000
 C                  0.85717500   -2.23702700    0.15666900
 H                  1.03724500   -2.57721500    1.18586300
 C                  2.07620100   -2.12898900   -0.72801700
 H                  1.78056400   -1.81023500   -1.74095900
 H                  2.52797100   -3.13634800   -0.82898800
 C                  3.12006200   -1.18907200   -0.17305700
 H                  3.51050100   -1.43655500    0.82356500
 C                  3.58375800   -0.10067800   -0.79547800
 H                  3.18583900    0.15289200   -1.78757900
 C                  4.62890000    0.83755500   -0.24075700
 H                  5.50221400    0.83563700   -0.92400300
 H                  4.98768800    0.47298200    0.73582100
 C                  4.13315800    2.25767600   -0.11176100
 H                  3.75893800    2.71922900   -1.03507800
 C                  4.11731600    2.96778900    1.02071900
 H                  4.47641700    2.54620500    1.96523000
 H                  3.74697500    3.99588900    1.04469700

