%nprocshared=24
%mem=300GB
%chk=C14H20_opt.chk
# opt(z-matrix) freq b3lyp/cc-pVDZ geom=connectivity

Title Card Required

0 1
 C              
 H                  1            B1
 H                  1            B2    2            A1
 C                  1            B3    3            A2    2            D1    0
 H                  4            B4    1            A3    3            D2    0
 C                  4            B5    1            A4    3            D3    0
 H                  6            B6    4            A5    1            D4    0
 H                  6            B7    4            A6    1            D5    0
 C                  6            B8    4            A7    1            D6    0
 H                  9            B9    6            A8    4            D7    0
 C                  9            B3    6            A9    4            D8    0
 H                 11           B11    9           A10    6            D9    0
 C                 11           B12    9           A11    6           D10    0
 H                 13           B13   11           A12    9           D11    0
 H                 13           B14   11           A13    9           D12    0
 C                 13           B15   11           A14    9           D13    0
 H                 16           B16   13           A15   11           D14    0
 C                 16            B3   13           A16   11           D15    0
 H                 18           B18   16           A17   13           D16    0
 C                 18           B19   16           A18   13           D17    0
 H                 20           B20   18           A19   16           D18    0
 H                 20           B21   18           A20   16           D19    0
 C                 20           B22   18           A21   16           D20    0
 H                 23           B23   20           A22   18           D21    0
 C                 23            B3   20           A23   18           D22    0
 H                 25           B25   23           A24   20           D23    0
 C                 25           B26   23           A25   20           D24    0
 H                 27           B27   25           A26   23           D25    0
 H                 27           B28   25           A27   23           D26    0
 C                 27           B29   25           A28   23           D27    0
 H                 30           B30   27           A29   25           D28    0
 C                 30            B3   27           A30   25           D29    0
 H                 32           B32   30           A31   27           D30    0
 H                 32           B33   30           A32   27           D31    0

   B1             1.07000000
   B2             1.07000000
   B3             1.35520000
   B4             1.07000000
   B5             1.54000000
   B6             1.07000000
   B7             1.07000000
   B8             1.54000000
   B9             1.07000000
   B11            1.07000000
   B12            1.54000000
   B13            1.07000000
   B14            1.07000000
   B15            1.54000000
   B16            1.07000000
   B18            1.07000000
   B19            1.54000000
   B20            1.07000000
   B21            1.07000000
   B22            1.54000000
   B23            1.07000000
   B25            1.07000000
   B26            1.54000000
   B27            1.07000000
   B28            1.07000000
   B29            1.54000000
   B30            1.07000000
   B32            1.07000000
   B33            1.07000000
   A1           119.88652694
   A2           119.88652694
   A3           120.22694612
   A4           119.88652694
   A5           109.47120255
   A6           109.47123134
   A7           109.47120255
   A8           119.88652694
   A9           120.22694612
   A10          120.22694612
   A11          119.88652694
   A12          109.47120255
   A13          109.47123134
   A14          109.47120255
   A15          119.88652694
   A16          120.22694612
   A17          120.22469738
   A18          119.88877551
   A19          109.47120255
   A20          109.47123134
   A21          109.47120255
   A22          119.88652694
   A23          120.22694612
   A24          120.22694612
   A25          119.88652694
   A26          109.47120255
   A27          109.47123134
   A28          109.47120255
   A29          119.88652694
   A30          120.22694612
   A31          120.22481656
   A32          119.88865611
   D1           180.00000000
   D2             0.00000000
   D3           180.00000000
   D4           -60.01109260
   D5            59.98890000
   D6           179.98889260
   D7            -0.00240951
   D8           179.99759049
   D9             0.02421128
   D10         -179.97578872
   D11          -60.11343574
   D12           59.88655687
   D13          179.88654947
   D14           -0.04292583
   D15          179.95707417
   D16            0.00237780
   D17          179.99765418
   D18           60.00212605
   D19          -59.99786655
   D20         -179.99785915
   D21            0.00369738
   D22         -179.99630262
   D23           -0.00000000
   D24          180.00000000
   D25           59.99990153
   D26          -60.00009108
   D27          180.00000000
   D28           -0.00072791
   D29          179.99927209
   D30            0.00363811
   D31          179.99641090

 1 2 1.0 3 1.0 4 2.0
 2
 3
 4 5 1.0 6 1.0
 5
 6 7 1.0 8 1.0 9 1.0
 7
 8
 9 10 1.0 11 2.0
 10
 11 12 1.0 13 1.0
 12
 13 14 1.0 15 1.0 16 1.0
 14
 15
 16 17 1.0 18 2.0
 17
 18 19 1.0 20 1.0
 19
 20 21 1.0 22 1.0 23 1.0
 21
 22
 23 24 1.0 25 2.0
 24
 25 26 1.0 27 1.0
 26
 27 28 1.0 29 1.0 30 1.0
 28
 29
 30 31 1.0 32 2.0
 31
 32 33 1.0 34 1.0
 33
 34

