%chk=H2O-8_z.chk
#

6-31G

0 1
 O              
 H                  1            B1
 H                  1            B1    2            A1
 O                  1            B3    2            A2    3            D1    0
 H                  4            B1    1            A3    2            D2    0
 H                  4            B1    1            A4    2            D3    0
 O                  4            B3    5            A5    1            D4    0
 H                  7            B1    4            A6    5            D5    0
 H                  7            B1    4            A7    5            D6    0
 O                  7            B3    8            A8    4            D7    0
 H                 10            B1    7            A9    8            D8    0
 H                 10            B1    7           A10    8            D9    0
 O                 10            B3   11           A11    7           D10    0
 H                 13            B1   10           A12   11           D11    0
 H                 13            B1   10           A13   11           D12    0
 O                 13            B3   14           A14   10           D13    0
 H                 16            B1   13           A15   14           D14    0
 H                 16            B1   13           A16   14           D15    0
 O                 16            B3   17           A17   13           D16    0
 H                 19            B1   16           A18   17           D17    0
 H                 19            B1   16           A19   17           D18    0
 O                 19            B3   20           A20   16           D19    0
 H                 22            B1   19           A21   20           D20    0
 H                 22            B1   19           A22   20           D21    0

   B1             0.97551
   B3            50.0
   A1           110.60000041
   A2            86.80493087
   A3            93.19506913
   A4            89.87934747
   A5            86.80493087
   A6            96.41879973
   A7            85.55910439
   A8            83.58120027
   A9            93.19506913
   A10           89.87934747
   A11           86.80493087
   A12           93.19506913
   A13           89.87934747
   A14           86.80493087
   A15           96.41879973
   A16           85.55910439
   A17           83.58120027
   A18           93.19506913
   A19           89.87934747
   A20           86.80493087
   A21           93.19506913
   A22           89.87934747
   D1           -88.92683794
   D2             0.00000000
   D3           110.62638389
   D4          -180.00000000
   D5             0.28682225
   D6           110.55350089
   D7          -180.00000000
   D8            -0.28682226
   D9           110.33956163
   D10          180.00000000
   D11            0.00000000
   D12          110.62638389
   D13         -180.00000000
   D14            0.28682225
   D15          110.55350089
   D16         -180.00000000
   D17           -0.28682226
   D18          110.33956163
   D19          180.00000000
   D20            0.00000000
   D21          110.62638389

