%nprocshared=24
%mem=300GB
%chk=C4H10_5.chk
# opt freq b3lyp/cc-pvdz

6-31g

0 1
 C                  0.00000000    0.00000000    0.00000000
 H                  0.00000000    0.00000000    1.10377088
 H                  1.05363543    0.00000000   -0.32887478
 H                 -0.45258961   -0.94841899   -0.33285347
 C                 -3.77180283    6.05278608   -2.77399982
 H                 -3.78502301    6.00569110   -3.87917722
 H                 -4.83076790    6.00557041   -2.45750497
 C                 -0.79416144   12.76406315   -0.58309879
 H                  0.26479950   12.81128822   -0.89960909
 H                 -0.78092509   12.81114778    0.52207809
 C                 -4.56608870   18.81684922   -3.35692944
 H                 -5.61975067   18.81677013   -3.02813625
 H                 -4.11357671   19.76526820   -3.02397044
 H                 -4.56600292   18.81692832   -4.46069929

