%nprocshared=24
%mem=300GB
%chk=C4H10-z.chk
# opt freq b3lyp/cc-pvdz

6-31g nt3

0 1
 C              
 H                  1            B1
 H                  1            B2    2            A1
 H                  1            B3    3            A2    2            D1    0
 C                  1            B4    4            A3    2            D2    0
 H                  5            B5    1            A4    4            D3    0
 H                  5            B6    1            A5    4            D4    0
 C                  5            B7    1            A6    4            D5    0
 H                  8            B8    5            A7    1            D6    0
 H                  8            B9    5            A8    1            D7    0
 C                  8           B10    5            A9    1            D8    0
 H                 11           B11    8           A10    5            D9    0
 H                 11           B12    8           A11    5           D10    0
 H                 11           B13    8           A12    5           D11    0

   B4             1.53046125
   B7             1.53241816
   B10            1.53046125
   B1             1.10377088
   B2             1.10376911
   B3             1.10232816
   B5             1.10625937
   B6             1.10625735
   B8             1.10625822
   B9             1.10625860
   B11            1.10377013
   B12            1.10232815
   B13            1.10376985
   A1           107.33488551
   A2           107.57525687
   A3           111.63581944
   A4           109.53410548
   A5           109.53338438
   A6           113.42923103
   A7           109.12233899
   A8           109.12262226
   A9           113.42923103
   A10          111.25399576
   A11          111.63581949
   A12          111.25389118
   D1          -115.51054709
   D2          -122.32429277
   D3           -57.82673851
   D4            57.81456670
   D5           179.99330328
   D6            57.59409626
   D7           -57.59072487
   D8          -179.99828636
   D9            59.81183666
   D10          179.99931395
   D11          -59.81319697

