%nprocshared=24
%mem=300GB
%chk=C4H10_3.chk
# opt freq b3lyp/cc-pvdz

6-31g

0 1
 C                  0.00000000    0.00000000    0.00000000
 H                  0.00000000    0.00000000    1.10377088
 H                  1.05363543    0.00000000   -0.32887478
 H                 -0.45258961   -0.94841899   -0.33285347
 C                 -2.26308170    3.63167165   -1.66439989
 H                 -2.27630188    3.58457667   -2.76957729
 H                 -3.32204677    3.58445597   -1.34790504
 C                 -0.47649687    7.65843789   -0.34985927
 H                  0.58246407    7.70566296   -0.66636958
 H                 -0.46326051    7.70552251    0.75531760
 C                 -2.73965322   11.29010953   -2.01415766
 H                 -3.79331519   11.29003044   -1.68536448
 H                 -2.28714123   12.23852851   -1.68119867
 H                 -2.73956743   11.29018863   -3.11792751

