%nprocshared=4
%mem=30GB
%chk=BH3.chk
# opt=z-matrix freq b3lyp/cc-pvdz

sto-6g

0 1
 B                  0.00000000    0.00000000    0.00000000
 H                  0.00000000    0.00000000    1.20431000
 H                  1.04296304    0.00000000   -0.60215502
 H                 -1.04296304    0.00000000   -0.60215502

