%nprocshared=4
%mem=30GB
%chk=BH3_4.chk
# opt=z-matrix freq b3lyp/cc-pvdz

sto-6g

0 1
 B                  0.00000000    0.00000000    0.00000000
 H                  0.00000000    0.00000000    4.81724000
 H                  4.17185216    0.00000000   -2.40862009
 H                 -4.17185216    0.00000000   -2.40862009

