%chk=H2O-4_4.chk
#

cc-pVDZ

0 1
 O                  0.00000000    0.00000000    0.00000000
 H                  0.00000000    0.00000000    3.90203996
 H                  3.65254170    0.00000000   -1.37290020
 O                  1.87000030   99.82704319    5.57355791
 H                  1.87000030   99.82704319    9.47559787
 H                  5.52254200   99.82704319    4.20065771
 O                  3.74000059  199.65408637   11.14711581
 H                  3.76351804  199.87311838   15.04293251
 H                  7.37782290  199.36035866    9.76657653
 O                  5.61000089  299.48112956   16.72067372
 H                  5.65106827  299.70847005   20.61586891
 H                  9.22559894  298.99666347   15.33551699

