%chk=H2O-4_3.chk
#

cc-pVDZ

0 1
 O                  0.00000000    0.00000000    0.00000000
 H                  0.00000000    0.00000000    2.92653000
 H                  2.73940631    0.00000000   -1.02967516
 O                  1.87000030   99.82704319    5.57355791
 H                  1.87000030   99.82704319    8.50008791
 H                  4.60940660   99.82704319    4.54388275
 O                  3.74000059  199.65408637   11.14711581
 H                  3.75763868  199.81836038   14.06897837
 H                  6.46836735  199.43379058   10.11171134
 O                  5.61000089  299.48112956   16.72067372
 H                  5.64080143  299.65163492   19.64207014
 H                  8.32169946  299.11777999   15.68180616

