%chk=H2O-4_2.chk
#

cc-pVDZ

0 1
 O                  0.00000000    0.00000000    0.00000000
 H                  0.00000000    0.00000000    1.95101998
 H                  1.82627085    0.00000000   -0.68645010
 O                  1.87000030   99.82704319    5.57355791
 H                  1.87000030   99.82704319    7.52457789
 H                  3.69627115   99.82704319    4.88710781
 O                  3.74000059  199.65408637   11.14711581
 H                  3.75175932  199.76360237   13.09502416
 H                  5.55891175  199.50722251   10.45684617
 O                  5.61000089  299.48112956   16.72067372
 H                  5.63053458  299.59479980   18.66827132
 H                  7.41779992  299.23889651   16.02809535

