%chk=H2O-4.chk
#

cc-pVDZ

0 1
 O                  0.00000000    0.00000000    0.00000000
 H                  0.00000000    0.00000000    0.97550999
 H                  0.91313543    0.00000000   -0.34322505
 O                  1.87000030   99.82704319    5.57355791
 H                  1.87000030   99.82704319    6.54906790
 H                  2.78313572   99.82704319    5.23033286
 O                  3.74000059  199.65408637   11.14711581
 H                  3.74587996  199.70884437   12.12106999
 H                  4.64945617  199.58065444   10.80198099
 O                  5.61000089  299.48112956   16.72067372
 H                  5.62026773  299.53796468   17.69447252
 H                  6.51390040  299.36001303   16.37438454

