%chk=H2O-4_z.chk
#

cc-pVDZ

0 1
 O              
 H                  1            B1
 H                  1            B1    2            A1
 O                  1            B3    3            A2    2            D1    0
 H                  4            B1    1            A3    3            D2    0
 H                  4            B1    1            A4    3            D3    0
 O                  4            B3    6            A5    1            D4    0
 H                  7            B1    4            A6    6            D5    0
 H                  7            B1    4            A7    6            D6    0
 O                  7            B3    9            A8    4            D7    0
 H                 10            B1    7            A9    9            D8    0
 H                 10            B1    7           A10    9            D9    0

   B1             0.97550999
   B3            5.0
   A1           110.60000041
   A2            90.12065253
   A3            93.19506913
   A4            89.87934747
   A5            90.12065253
   A6            96.41879973
   A7            85.55910439
   A8            94.44089561
   A9            96.54570834
   A10           82.73837198
   D1            86.63185374
   D2          -110.62638388
   D3             0.00000000
   D4           180.00000000
   D5          -110.33956163
   D6            -0.07288299
   D7          -180.00000000
   D8          -110.00955878
   D9             0.01316810

