%chk=H2O-4_1.5.chk
#

cc-pVDZ

0 1
 O                  0.00000000    0.00000000    0.00000000
 H                  0.00000000    0.00000000    1.46326499
 H                  1.36970314    0.00000000   -0.51483758
 O                  1.87000030   99.82704319    5.57355791
 H                  1.87000030   99.82704319    7.03682290
 H                  3.23970344   99.82704319    5.05872033
 O                  3.74000059  199.65408637   11.14711581
 H                  3.74881964  199.73622337   12.60804708
 H                  5.10418396  199.54393848   10.62941358
 O                  5.61000089  299.48112956   16.72067372
 H                  5.62540116  299.56638224   18.18137192
 H                  6.96585016  299.29945477   16.20123994

