%chk=H2O-4_0.75.chk
#

cc-pVDZ

0 1
 O                  0.00000000    0.00000000    0.00000000
 H                  0.00000000    0.00000000    0.73163249
 H                  0.68485157    0.00000000   -0.25741879
 O                  1.87000030   99.82704319    5.57355791
 H                  1.87000030   99.82704319    6.30519040
 H                  2.55485186   99.82704319    5.31613912
 O                  3.74000059  199.65408637   11.14711581
 H                  3.74441011  199.69515487   11.87758144
 H                  4.42209227  199.59901242   10.88826470
 O                  5.61000089  299.48112956   16.72067372
 H                  5.61770102  299.52375590   17.45102281
 H                  6.28792552  299.39029217   16.46095683

