%nprocshared=8
%mem=30GB
%chk=C4H10_z.chk
# opt freq b3lyp/cc-pvdz

cc-pVDZ

0 1
 C                  0.00000000    0.00000000    0.00000000
 H                  0.00000000    0.00000000    1.10232816
 H                  1.05224927    0.00000000   -0.33328911
 H                 -0.45054444   -0.95091129   -0.33329216
 C                 -1.52139561    2.40435226   -1.12857972
 H                 -1.06909312    3.33973876   -0.74873781
 H                 -2.56043238    2.39600071   -0.74891852
 C                 -1.57240548    2.48558091   -4.19191476
 H                 -2.02472473    1.55020217   -4.57175837
 H                 -0.53336849    2.49391340   -4.57157352
 C                 -3.09373011    4.88997808   -5.32049446
 H                 -2.64323845    5.84087926   -4.98709872
 H                 -3.09361941    4.89004813   -6.42282260
 H                 -4.14601110    4.88993472   -4.98730894

