%nprocshared=8
%mem=30GB
%chk=C4H10_z.chk
# opt freq b3lyp/cc-pvdz

cc-pVDZ

0 1
 C                  0.00000000    0.00000000    0.00000000
 H                  0.00000000    0.00000000    1.10232816
 H                  1.05224927    0.00000000   -0.33328911
 H                 -0.45054444   -0.95091129   -0.33329216
 C                 -0.60855824    0.96174090   -0.45143189
 H                 -0.15625575    1.89712741   -0.07158998
 H                 -1.64759502    0.95338935   -0.07177069
 C                 -0.62896219    0.99423236   -1.67676590
 H                 -1.08128144    0.05885363   -2.05660952
 H                  0.41007480    1.00256486   -2.05642467
 C                 -1.23749204    1.95599123   -2.12819779
 H                 -0.78700039    2.90689241   -1.79480204
 H                 -1.23738135    1.95606128   -3.23052593
 H                 -2.28977304    1.95594787   -1.79501227

