%nprocshared=8
%mem=30GB
%chk=C4H10_z.chk
# opt freq b3lyp/cc-pvdz

cc-pVDZ

0 1
 C                  0.00000000    0.00000000    0.00000000
 H                  0.00000000    0.00000000    1.10232816
 H                  1.05224927    0.00000000   -0.33328911
 H                 -0.45054444   -0.95091129   -0.33329216
 C                 -1.14104671    1.80326419   -0.84643479
 H                 -0.68874421    2.73865070   -0.46659288
 H                 -2.18008348    1.79491264   -0.46677359
 C                 -1.17930411    1.86418568   -3.14393607
 H                 -1.63162336    0.92880695   -3.52377969
 H                 -0.14026712    1.87251817   -3.52359483
 C                 -2.32029758    3.66748356   -3.99037085
 H                 -1.86980593    4.61838474   -3.65697510
 H                 -2.32018689    3.66755361   -5.09269899
 H                 -3.37257858    3.66744020   -3.65718532

