%nprocshared=8
%mem=30GB
%chk=C4H10.chk
# opt freq b3lyp/cc-pvdz

cc-pVDZ

0 1
 C                  0.00000000    0.00000000    0.00000000
 H                  0.00000000    0.00000000    1.10232816
 H                  1.05224927    0.00000000   -0.33328911
 H                 -0.45054444   -0.95091129   -0.33329216
 C                 -0.76069780    1.20217613   -0.56428986
 H                 -0.30839531    2.13756263   -0.18444795
 H                 -1.79973458    1.19382458   -0.18462866
 C                 -0.78620274    1.24279045   -2.09595738
 H                 -1.23852199    0.30741172   -2.47580100
 H                  0.25283425    1.25112295   -2.47561614
 C                 -1.54686506    2.44498904   -2.66024723
 H                 -1.09637340    3.39589022   -2.32685149
 H                 -1.54675436    2.44505909   -3.76257537
 H                 -2.59914605    2.44494568   -2.32706171

