%nprocshared=8
%mem=30GB
%chk=C4H10_z.chk
# opt freq b3lyp/cc-pvdz

cc-pVDZ

0 1
 C                  0.00000000    0.00000000    0.00000000
 H                  0.00000000    0.00000000    1.10232816
 H                  1.05224927    0.00000000   -0.33328911
 H                 -0.45054444   -0.95091129   -0.33329216
 C                 -2.28209341    3.60652839   -1.69286957
 H                 -1.82979092    4.54191489   -1.31302767
 H                 -3.32113019    3.59817684   -1.31320837
 C                 -2.35860823    3.72837136   -6.28787213
 H                 -2.81092747    2.79299262   -6.66771575
 H                 -1.31957123    3.73670385   -6.66753090
 C                 -4.64059517    7.33496712   -7.98074169
 H                 -4.19010351    8.28586830   -7.64734595
 H                 -4.64048447    7.33503717   -9.08306983
 H                 -5.69287616    7.33492376   -7.64755617

