%nprocshared=4
%mem=30GB
%chk=CH4_z.chk
# opt=z-matrix freq b3lyp/cc-pvdz

cc-pVDZ

0 1
 C                  0.00000000    0.00000000    0.00000000
 H                  0.00000000    0.00000000    1.10021946
 H                  1.03729685    0.00000000   -0.36673982
 H                 -0.51864843   -0.89832543   -0.36673982
 H                 -0.51864843    0.89832543   -0.36673982

