%nprocshared=4
%mem=30GB
%chk=CH4_z.chk
# opt=z-matrix freq b3lyp/cc-pvdz

cc-pVDZ

0 1
 C                  0.00000000    0.00000000    0.00000000
 H                  0.00000000    0.00000000    3.30065838
 H                  3.11189056    0.00000000   -1.10021946
 H                 -1.55594528   -2.69497628   -1.10021946
 H                 -1.55594528    2.69497628   -1.10021946

