%nprocshared=4
%mem=30GB
%chk=CH4_z.chk
# opt=z-matrix freq b3lyp/cc-pvdz

cc-pVDZ

0 1
 C                  0.00000000    0.00000000    0.00000000
 H                  0.00000000    0.00000000    2.20043892
 H                  2.07459371    0.00000000   -0.73347964
 H                 -1.03729685   -1.79665085   -0.73347964
 H                 -1.03729685    1.79665085   -0.73347964

