%nprocshared=4
%mem=30GB
%chk=CH4_z.chk
# opt=z-matrix freq b3lyp/cc-pvdz

cc-pVDZ

0 1
 C                  0.00000000    0.00000000    0.00000000
 H                  0.00000000    0.00000000    1.65032919
 H                  1.55594528    0.00000000   -0.55010973
 H                 -0.77797264   -1.34748814   -0.55010973
 H                 -0.77797264    1.34748814   -0.55010973

