%nprocshared=4
%mem=30GB
%chk=CH4_z.chk
# opt=z-matrix freq b3lyp/cc-pvdz

cc-pVDZ

0 1
 C                  0.00000000    0.00000000    0.00000000
 H                  0.00000000    0.00000000    0.99019751
 H                  0.93356717    0.00000000   -0.33006584
 H                 -0.46678358   -0.80849288   -0.33006584
 H                 -0.46678358    0.80849288   -0.33006584

