%chk=C2H4-asym.chk
#

sto-6g 6D meta_Lowdin trans_dipo

0 1
 C                  0.51750134    0.59218345    1.87862577
 H                  1.05066508   -0.33552147    1.87862577
 H                 -0.78249866    0.59218345    1.87862577
 C                  1.19277564    1.76716075    1.87862577
 H                  0.44534983    3.06768167    1.87862577
 H                  1.99277564    1.76716075    1.87862577

