%nprocshared=4
%mem=30GB
%chk=C2H4_0.8.chk
# opt=z-matrix freq b3lyp/cc-pvdz

sto-6g 6D meta_Lowdin trans_dipo

0 1
 C                 -0.00002900    0.66657100    0.00000000
 H                  0.93132100    1.24109800    0.00000000
 H                 -0.93108400    1.24153900    0.00000000
 C                 -0.00002900   -0.40006100    0.00000000
 H                 -0.93143900   -0.97435300    0.00000000
 H                  0.93155600   -0.97408800    0.00000000

