%nprocshared=4
%mem=30GB
%chk=C2H4_4.chk
# opt=z-matrix freq b3lyp/cc-pvdz

sto-6g 6D meta_Lowdin trans_dipo

0 1
 C                 -0.00002900    0.66657100    0.00000000
 H                  0.93132100    1.24109800    0.00000000
 H                 -0.93108400    1.24153900    0.00000000
 C                 -0.00002900   -4.66658900    0.00000000
 H                 -0.93143900   -5.24088100    0.00000000
 H                  0.93155600   -5.24061600    0.00000000

